/*---------------------------------------------------------------------------*\
| =========                 |                                                 |
| \\      /  F ield         | OpenFOAM: The Open Source CFD Toolbox           |
|  \\    /   O peration     | Version:  2412                                  |
|   \\  /    A nd           | Website:  www.openfoam.com                      |
|    \\/     M anipulation  |                                                 |
\*---------------------------------------------------------------------------*/
Build  : _e5c6ccc3-20250814 OPENFOAM=2412 patch=250814 version=2412
Arch   : "LSB;label=32;scalar=64"
Exec   : snappyHexMesh -overwrite -parallel
Date   : Jan 31 2026
Time   : 19:53:29
Host   : Albert
PID    : 1300427
I/O    : uncollated
Case   : /home/shafa/controlSurfaces/Aero_Fin_mesh_refinement
nProcs : 6
Hosts  :
(
    (Albert 6)
)
Pstream initialized with:
    floatTransfer      : false
    maxCommsSize       : 0
    nProcsSimpleSum    : 0
    nonBlockingExchange: 0 (tuning: 0)
    exchange algorithm : 0
    commsType          : nonBlocking
    polling iterations : 0
trapFpe: Floating point exception trapping enabled (FOAM_SIGFPE).
fileModificationChecking : Monitoring run-time modified files using timeStampMaster (fileModificationSkew 5, maxFileModificationPolls 20)
allowSystemOperations : Allowing user-supplied system call operations

// * * * * * * * * * * * * * * * * * * * * * * * * * * * * * * * * * * * * * //
Create time

--> FOAM Warning : 
    From virtual void Foam::Time::readDict()
    in file db/Time/TimeIO.C at line 403
    Reading "system/controlDict" at line 17 to 112
    Disabled output compression for non-ascii format (inefficient/ineffective)
Create mesh for time = 0

Read mesh in = 0.55 s

Overall mesh bounding box  : (-1.033 -0.8264000000000004 0) (2.205700000000001 0.8264000000000008 0.8963000000000002)
Relative tolerance         : 1e-06
Absolute matching distance : 3.744900428582849e-06

Reading refinement surfaces.
Read refinement surfaces in = 0.01 s

Reading refinement shells.
Refinement level according to distance to Fin.stl
    level 7 for all cells within 0.001 metre.
    level 6 for all cells within 0.003 metre.
    level 4 for all cells within 0.01 metre.
Read refinement shells in = 0 s

Setting refinement level of surface to be consistent with shells.
For geometry Fin.stl detected 0 uncached triangles out of 1156
Checked shell refinement in = 0 s

Reading features.
Read edgeMesh Fin.eMesh
    points      : 48
    edges       : 47
    boundingBox : (-0.03946429863572121 -0.003047999925911427 -5.282520128518497e-15) (0.09874039888381958 0.0001270000066142529 0.06984999775886536)

Refinement level according to distance to "Fin.eMesh" (48 points, 47 edges).
    level 7 for all cells within 0 metre.
Read features in = 0 s


Determining initial surface intersections
-----------------------------------------

Edge intersection testing:
    Number of edges             : 10832000
    Number of edges to retest   : 0
    Number of intersected edges : 0
Edge intersection testing:
    Number of edges             : 10832000
    Number of edges to retest   : 10832000
    Number of intersected edges : 147
Calculated surface intersections in = 2.73 s

Initial mesh : cells:3584000  faces:10832000  points:3664521  unbalance:0.006673549107142907
Cells per refinement level:
    0	3584000
Setting refinement level of surface to be consistent with curvature.
Checked curvature refinement in = 0.01 s


Adding patches for surface regions
----------------------------------

Patch Type                Region                        
----- ----                ------                        
Fin:

3     wall                Fin                           

Added patches in = 0.15 s

Edge intersection testing:
    Number of edges             : 10832000
    Number of edges to retest   : 0
    Number of intersected edges : 147
Decomposition method scotch [6]

Refinement phase
----------------

Found point (-0.5 0 0.4) in cell 268859 on processor 1

Feature refinement iteration 0
------------------------------

Marked for refinement due to explicit features             : 16 cells.
Determined cells to refine in = 8.460000000000001 s
Selected for feature refinement : 16 cells (out of 3584000)
Edge intersection testing:
    Number of edges             : 10832429
    Number of edges to retest   : 702
    Number of intersected edges : 235
Refined mesh in = 3.5 s
After refinement feature refinement iteration 0 : cells:3584112  faces:10832429  points:3664742  unbalance:0.006517095447910126
Cells per refinement level:
    0	3583984
    1	128
Balancing since max unbalance 0.006517095447910126 is larger than allowable 0
Balanced mesh in = 11.85 s
After balancing feature refinement iteration 0 : cells:3584112  faces:10832429  points:3664742  unbalance:0.005747030226733951
Cells per refinement level:
    0	3583984
    1	128

Feature refinement iteration 1
------------------------------

Marked for refinement due to explicit features             : 37 cells.
Determined cells to refine in = 7.73 s
Selected for feature refinement : 62 cells (out of 3584112)
Edge intersection testing:
    Number of edges             : 10834031
    Number of edges to retest   : 2432
    Number of intersected edges : 446
Refined mesh in = 2.91 s
After refinement feature refinement iteration 1 : cells:3584546  faces:10834031  points:3665515  unbalance:0.005867409708230853
Cells per refinement level:
    0	3583959
    1	291
    2	296
Balancing since max unbalance 0.005867409708230853 is larger than allowable 0
Balanced mesh in = 10.59 s
After balancing feature refinement iteration 1 : cells:3584546  faces:10834031  points:3665515  unbalance:0.006806998710575884
Cells per refinement level:
    0	3583959
    1	291
    2	296

Feature refinement iteration 2
------------------------------

Marked for refinement due to explicit features             : 73 cells.
Determined cells to refine in = 7.72 s
Selected for feature refinement : 133 cells (out of 3584546)
Edge intersection testing:
    Number of edges             : 10837406
    Number of edges to retest   : 5454
    Number of intersected edges : 842
Refined mesh in = 2.83 s
After refinement feature refinement iteration 2 : cells:3585477  faces:10837406  points:3667097  unbalance:0.006656018153233134
Cells per refinement level:
    0	3583944
    1	366
    2	583
    3	584
Balancing since max unbalance 0.006656018153233134 is larger than allowable 0
Balanced mesh in = 10.81 s
After balancing feature refinement iteration 2 : cells:3585477  faces:10837406  points:3667097  unbalance:0.006662711823280376
Cells per refinement level:
    0	3583944
    1	366
    2	583
    3	584

Feature refinement iteration 3
------------------------------

Marked for refinement due to explicit features             : 146 cells.
Determined cells to refine in = 8.09 s
Selected for feature refinement : 274 cells (out of 3585477)
Edge intersection testing:
    Number of edges             : 10844384
    Number of edges to retest   : 11268
    Number of intersected edges : 1924
Refined mesh in = 2.87 s
After refinement feature refinement iteration 3 : cells:3587395  faces:10844384  points:3670391  unbalance:0.007955912298478474
Cells per refinement level:
    0	3583935
    1	413
    2	689
    3	1190
    4	1168
Balancing since max unbalance 0.007955912298478474 is larger than allowable 0
Balanced mesh in = 10.65 s
After balancing feature refinement iteration 3 : cells:3587395  faces:10844384  points:3670391  unbalance:0.009641815300517553
Cells per refinement level:
    0	3583935
    1	413
    2	689
    3	1190
    4	1168

Feature refinement iteration 4
------------------------------

Marked for refinement due to explicit features             : 292 cells.
Determined cells to refine in = 7.78 s
Selected for feature refinement : 572 cells (out of 3587395)
Edge intersection testing:
    Number of edges             : 10858907
    Number of edges to retest   : 23265
    Number of intersected edges : 4037
Refined mesh in = 2.89 s
After refinement feature refinement iteration 4 : cells:3591399  faces:10858907  points:3677193  unbalance:0.009358191612794942
Cells per refinement level:
    0	3583932
    1	416
    2	793
    3	1510
    4	2412
    5	2336
Balancing since max unbalance 0.009358191612794942 is larger than allowable 0
Balanced mesh in = 10.95 s
After balancing feature refinement iteration 4 : cells:3591399  faces:10858907  points:3677193  unbalance:0.009622155600087945
Cells per refinement level:
    0	3583932
    1	416
    2	793
    3	1510
    4	2412
    5	2336

Feature refinement iteration 5
------------------------------

Marked for refinement due to explicit features             : 585 cells.
Determined cells to refine in = 7.85 s
Selected for feature refinement : 1186 cells (out of 3591399)
Edge intersection testing:
    Number of edges             : 10888946
    Number of edges to retest   : 48458
    Number of intersected edges : 7351
Refined mesh in = 2.84 s
After refinement feature refinement iteration 5 : cells:3599701  faces:10888946  points:3691234  unbalance:0.01041780970141681
Cells per refinement level:
    0	3583927
    1	439
    2	875
    3	1802
    4	3147
    5	4831
    6	4680
Balancing since max unbalance 0.01041780970141681 is larger than allowable 0
Balanced mesh in = 10.78 s
After balancing feature refinement iteration 5 : cells:3599701  faces:10888946  points:3691234  unbalance:0.004953466968506515
Cells per refinement level:
    0	3583927
    1	439
    2	875
    3	1802
    4	3147
    5	4831
    6	4680

Feature refinement iteration 6
------------------------------

Marked for refinement due to explicit features             : 1168 cells.
Determined cells to refine in = 8.4 s
Selected for feature refinement : 2260 cells (out of 3599701)
Edge intersection testing:
    Number of edges             : 10946306
    Number of edges to retest   : 92030
    Number of intersected edges : 15308
Refined mesh in = 3.22 s
After refinement feature refinement iteration 6 : cells:3615521  faces:10946306  points:3718126  unbalance:0.02209169854081883
Cells per refinement level:
    0	3583927
    1	437
    2	881
    3	1837
    4	3236
    5	6235
    6	9624
    7	9344
Balancing since max unbalance 0.02209169854081883 is larger than allowable 0
Balanced mesh in = 11.94 s
After balancing feature refinement iteration 6 : cells:3615521  faces:10946306  points:3718126  unbalance:0.004548445438430693
Cells per refinement level:
    0	3583927
    1	437
    2	881
    3	1837
    4	3236
    5	6235
    6	9624
    7	9344

Feature refinement iteration 7
------------------------------

Marked for refinement due to explicit features             : 0 cells.
Determined cells to refine in = 7.93 s
Selected for feature refinement : 0 cells (out of 3615521)
Stopping refining since too few cells selected.


Surface refinement iteration 0
------------------------------

Marked for refinement due to surface intersection          : 9001 cells.
Determined cells to refine in = 0.1 s
Selected for refinement : 9669 cells (out of 3615521)
Edge intersection testing:
    Number of edges             : 11170337
    Number of edges to retest   : 325525
    Number of intersected edges : 35770
Refined mesh in = 3.25 s
After refinement surface refinement iteration 0 : cells:3683204  faces:11170337  points:3806775  unbalance:0.09263184987852968
Cells per refinement level:
    0	3583783
    1	1461
    2	1615
    3	3487
    4	7420
    5	13132
    6	24962
    7	47344
Balancing since max unbalance 0.09263184987852968 is larger than allowable 0
Balanced mesh in = 11.26 s
After balancing surface refinement iteration 0 : cells:3683204  faces:11170337  points:3806775  unbalance:0.003709813521054039
Cells per refinement level:
    0	3583783
    1	1461
    2	1615
    3	3487
    4	7420
    5	13132
    6	24962
    7	47344

Surface refinement iteration 1
------------------------------

Marked for refinement due to surface intersection          : 17110 cells.
Determined cells to refine in = 0.27 s
Selected for refinement : 18272 cells (out of 3683204)
Edge intersection testing:
    Number of edges             : 11591087
    Number of edges to retest   : 621217
    Number of intersected edges : 72938
Refined mesh in = 4.05 s
After refinement surface refinement iteration 1 : cells:3811108  faces:11591087  points:3971676  unbalance:0.167430573995804
Cells per refinement level:
    0	3583764
    1	896
    2	6791
    3	6689
    4	14864
    5	30835
    6	52877
    7	114392
Balancing since max unbalance 0.167430573995804 is larger than allowable 0
Balanced mesh in = 11.7 s
After balancing surface refinement iteration 1 : cells:3811108  faces:11591087  points:3971676  unbalance:0.004210324136707744
Cells per refinement level:
    0	3583764
    1	896
    2	6791
    3	6689
    4	14864
    5	30835
    6	52877
    7	114392

Surface refinement iteration 2
------------------------------

Marked for refinement due to surface intersection          : 35118 cells.
Determined cells to refine in = 0.33 s
Selected for refinement : 37564 cells (out of 3811108)
Edge intersection testing:
    Number of edges             : 12451766
    Number of edges to retest   : 1190542
    Number of intersected edges : 144966
Refined mesh in = 5.57 s
After refinement surface refinement iteration 2 : cells:4074056  faces:12451766  points:4306306  unbalance:0.3189362149170261
Cells per refinement level:
    0	3583750
    1	938
    2	4450
    3	27449
    4	29135
    5	62756
    6	121306
    7	244272
Balancing since max unbalance 0.3189362149170261 is larger than allowable 0
Balanced mesh in = 13.47 s
After balancing surface refinement iteration 2 : cells:4074056  faces:12451766  points:4306306  unbalance:0.00910198583426447
Cells per refinement level:
    0	3583750
    1	938
    2	4450
    3	27449
    4	29135
    5	62756
    6	121306
    7	244272

Surface refinement iteration 3
------------------------------

No cells marked for refinement since reached limit 4000000.
Determined cells to refine in = 0.19 s
Selected for refinement : 0 cells (out of 4074056)
Stopping refining since too few cells selected.


Removing mesh beyond surface intersections
------------------------------------------

Setting cellZones according to locationsInMesh:
Location : (-0.5 0 0.4)
    cellZone : none

For cellZone none found point (-0.5 0 0.4) in global region 0 out of 2 regions.
--> FOAM Warning : 
    From void Foam::meshRefinement::nearestFace(const Foam::labelUList&, const Foam::bitSet&, Foam::autoPtr<Foam::mapDistribute>&, Foam::labelList&, Foam::label) const
    in file meshRefinement/meshRefinement.C at line 527
    Did not visit some faces, e.g. face 0 at (1.590347 0.09103312500000016 0.005601875000000007)
Keeping all cells containing inside points
Selected for keeping : 3938061 cells.
Edge intersection testing:
    Number of edges             : 12061175
    Number of edges to retest   : 140796
    Number of intersected edges : 144966

Shell refinement iteration 0
----------------------------

Marked for refinement due to distance to explicit features : 0 cells.
Marked for refinement due to refinement shells             : 170184 cells.
Determined cells to refine in = 5.78 s
Selected for internal refinement : 170297 cells (out of 3938061)
Edge intersection testing:
    Number of edges             : 15799535
    Number of edges to retest   : 4653820
    Number of intersected edges : 287655
Refined mesh in = 12.84 s
After refinement shell refinement iteration 0 : cells:5130140  faces:15799535  points:5541100  unbalance:1.022065284768057
Cells per refinement level:
    0	3583498
    1	2162
    2	6337
    3	29912
    4	166440
    5	142312
    6	349464
    7	850015
Balancing since max unbalance 1.022065284768057 is larger than allowable 0
Balanced mesh in = 21.73 s
After balancing shell refinement iteration 0 : cells:5130140  faces:15799535  points:5541103  unbalance:0.009498376262636166
Cells per refinement level:
    0	3583498
    1	2162
    2	6337
    3	29912
    4	166440
    5	142312
    6	349464
    7	850015

Shell refinement iteration 1
----------------------------

No cells marked for refinement since reached limit 4000000.
Determined cells to refine in = 1.29 s
Selected for internal refinement : 1503 cells (out of 5130140)
Edge intersection testing:
    Number of edges             : 15831509
    Number of edges to retest   : 141163
    Number of intersected edges : 287700
Refined mesh in = 5.28 s
After refinement shell refinement iteration 1 : cells:5140661  faces:15831509  points:5552035  unbalance:0.007072825848660313
Cells per refinement level:
    0	3583442
    1	2511
    2	7023
    3	30576
    4	167414
    5	145736
    6	353944
    7	850015
Balancing since max unbalance 0.007072825848660313 is larger than allowable 0
Balanced mesh in = 16.64 s
After balancing shell refinement iteration 1 : cells:5140661  faces:15831509  points:5552048  unbalance:0.009998908700651565
Cells per refinement level:
    0	3583442
    1	2511
    2	7023
    3	30576
    4	167414
    5	145736
    6	353944
    7	850015

Shell refinement iteration 2
----------------------------

No cells marked for refinement since reached limit 4000000.
Determined cells to refine in = 0.83 s
Selected for internal refinement : 27 cells (out of 5140661)
Edge intersection testing:
    Number of edges             : 15832094
    Number of edges to retest   : 2439
    Number of intersected edges : 287700
Refined mesh in = 4.98 s
After refinement shell refinement iteration 2 : cells:5140850  faces:15832094  points:5552255  unbalance:0.009855568631646605
Cells per refinement level:
    0	3583415
    1	2727
    2	7023
    3	30576
    4	167414
    5	145736
    6	353944
    7	850015
Balancing since max unbalance 0.009855568631646605 is larger than allowable 0
Balanced mesh in = 16.15 s
After balancing shell refinement iteration 2 : cells:5140850  faces:15832094  points:5552262  unbalance:0.009646653763482727
Cells per refinement level:
    0	3583415
    1	2727
    2	7023
    3	30576
    4	167414
    5	145736
    6	353944
    7	850015

Shell refinement iteration 3
----------------------------

No cells marked for refinement since reached limit 4000000.
Determined cells to refine in = 0.83 s
Selected for internal refinement : 0 cells (out of 5140850)
Stopping refining since too few cells selected.


Dangling coarse cells refinement iteration 0
--------------------------------------------

Determined cells to refine in = 0.06 s
Selected for refinement : 0 cells (out of 5140850)
Stopping refining since too few cells selected.


Dangling coarse cells refinement iteration 0
--------------------------------------------

Determined cells to refine in = 0.05 s
Selected for refinement : 0 cells (out of 5140850)
Stopping refining since too few cells selected.


Refinement transition refinement iteration 0
--------------------------------------------

Determined cells to refine in = 0.06 s
Selected for refinement : 0 cells (out of 5140850)
Stopping refining since too few cells selected.


Splitting mesh at surface intersections
---------------------------------------

Introducing baffles for 287700 faces that are intersected by the surface.

Setting cellZones according to locationsInMesh:
Location : (-0.5 0 0.4)
    cellZone : none

For cellZone none found point (-0.5 0 0.4) in global region 0 out of 2 regions.
Edge intersection testing:
    Number of edges             : 16073110
    Number of edges to retest   : 1817623
    Number of intersected edges : 525824
Created baffles in = 5.1 s


After introducing baffles : cells:5140850  faces:16073110  points:5552263  unbalance:0.009646653763482727
Cells per refinement level:
    0	3583415
    1	2727
    2	7023
    3	30576
    4	167414
    5	145736
    6	353944
    7	850015

Introducing baffles to block off problem cells
----------------------------------------------

markFacesOnProblemCells : marked 210052 additional internal faces to be converted into baffles.
Analyzed problem cells in = 3.85 s


Introducing baffles to delete problem cells.

Edge intersection testing:
    Number of edges             : 16282789
    Number of edges to retest   : 716659
    Number of intersected edges : 525840
Created baffles in = 3.6 s


After introducing baffles : cells:5140850  faces:16282789  points:5552864  unbalance:0.009646653763482727
Cells per refinement level:
    0	3583415
    1	2727
    2	7023
    3	30576
    4	167414
    5	145736
    6	353944
    7	850015
Setting cellZones according to locationsInMesh:
Location : (-0.5 0 0.4)
    cellZone : none

For cellZone none found point (-0.5 0 0.4) in global region 0 out of 98020 regions.
Edge intersection testing:
    Number of edges             : 16282789
    Number of edges to retest   : 1962279
    Number of intersected edges : 525840

Remove unreachable sections of mesh
-----------------------------------

Keeping all cells containing points 1((-0.5 0 0.4))
Selected for keeping : 4642909 cells.
Edge intersection testing:
    Number of edges             : 14280056
    Number of edges to retest   : 0
    Number of intersected edges : 239959
Split mesh in = 10.13 s


After subsetting : cells:4642909  faces:14280056  points:4997140  unbalance:0.2278431474749989
Cells per refinement level:
    0	3583415
    1	2727
    2	7023
    3	30472
    4	99637
    5	116891
    6	271069
    7	531675

Introducing zones for interfaces
--------------------------------

Setting cellZones according to locationsInMesh:
Location : (-0.5 0 0.4)
    cellZone : none

For cellZone none found point (-0.5 0 0.4) in global region 0 out of 1 regions.
Setting faceZones according to neighbouring cellZones:

Edge intersection testing:
    Number of edges             : 14280056
    Number of edges to retest   : 0
    Number of intersected edges : 239959

Handling cells with snap problems
---------------------------------

Introducing baffles for 239959 faces that are intersected by the surface.

Setting cellZones according to locationsInMesh:
Location : (-0.5 0 0.4)
    cellZone : none

For cellZone none found point (-0.5 0 0.4) in global region 0 out of 1 regions.
Edge intersection testing:
    Number of edges             : 14280056
    Number of edges to retest   : 819918
    Number of intersected edges : 239959
Created baffles in = 8.51 s


After introducing baffles : cells:4642909  faces:14280056  points:4997140  unbalance:0.2278431474749989
Cells per refinement level:
    0	3583415
    1	2727
    2	7023
    3	30472
    4	99637
    5	116891
    6	271069
    7	531675

Introducing baffles to block off problem cells
----------------------------------------------

markFacesOnProblemCells : marked 0 additional internal faces to be converted into baffles.
Analyzed problem cells in = 2.82 s


Introducing baffles to delete problem cells.

Created baffles in = 0.32 s


After introducing baffles : cells:4642909  faces:14280056  points:4997140  unbalance:0.2278431474749989
Cells per refinement level:
    0	3583415
    1	2727
    2	7023
    3	30472
    4	99637
    5	116891
    6	271069
    7	531675
Setting cellZones according to locationsInMesh:
Location : (-0.5 0 0.4)
    cellZone : none

For cellZone none found point (-0.5 0 0.4) in global region 0 out of 1 regions.
Edge intersection testing:
    Number of edges             : 14280056
    Number of edges to retest   : 819918
    Number of intersected edges : 239959

Remove unreachable sections of mesh
-----------------------------------

Split mesh in = 5.05 s


After subsetting : cells:4642909  faces:14280056  points:4997140  unbalance:0.2278431474749989
Cells per refinement level:
    0	3583415
    1	2727
    2	7023
    3	30472
    4	99637
    5	116891
    6	271069
    7	531675

Merge free-standing baffles
---------------------------

freeStandingBaffles : detected 71 free-standing baffles out of 71

freeStandingBaffles : detected 5 planar (within 60 degrees) free-standing baffles out of 71

Detected free-standing baffles : 5
Edge intersection testing:
    Number of edges             : 14280051
    Number of edges to retest   : 5
    Number of intersected edges : 239958

Introducing baffles to block off problem cells
----------------------------------------------

markFacesOnProblemCells : marked 0 additional internal faces to be converted into baffles.
Analyzed problem cells in = 6.36 s


Introducing baffles to delete problem cells.

Created baffles in = 0.35 s


After introducing baffles : cells:4642909  faces:14280051  points:4997140  unbalance:0.2278431474749989
Cells per refinement level:
    0	3583415
    1	2727
    2	7023
    3	30472
    4	99637
    5	116891
    6	271069
    7	531675

Remove unreachable sections of mesh
-----------------------------------

Merged free-standing baffles in = 1.08 s


dupNonManifoldPoints : Found : 66 non-manifold points (out of 5056447)
Edge intersection testing:
    Number of edges             : 14280051
    Number of edges to retest   : 0
    Number of intersected edges : 239958
Detected unsplittable baffles : 0

Merge refined boundary faces
----------------------------

Merging 1156 sets of faces.

Edge intersection testing:
    Number of edges             : 14277863
    Number of edges to retest   : 7018
    Number of intersected edges : 237770

Undo iteration 0
----------------
Checking faces in error :
    non-orthogonality > 70  degrees                        : 0
    faces with face pyramid volume < 1e-18                 : 0
    faces with face-decomposition tet quality < 1e-12      : 0
    faces with concavity > 80  degrees                     : 0
    faces with area < 1e-13 m^2                            : 0
    faces with skewness > 4   (internal) or 8   (boundary) : 0
    faces with interpolation weights (0..1)  < 0.05        : 0
    faces with volume ratio of neighbour cells < 0.02      : 0
    faces with face twist < 0.02                           : 0
    faces with triangle twist < 0.02                       : 0
    faces on cells with determinant < 0.001                : 0

Merging all points on surface that
- are used by only two boundary faces and
- make an angle with a cosine of more than 0.7071067811865476.

Removing 1496 straight edge points ...

Edge intersection testing:
    Number of edges             : 14277863
    Number of edges to retest   : 7041
    Number of intersected edges : 237770

Undo iteration 0
----------------
Checking faces in error :
    non-orthogonality > 70  degrees                        : 0
    faces with face pyramid volume < 1e-18                 : 0
    faces with face-decomposition tet quality < 1e-12      : 0
    faces with concavity > 80  degrees                     : 0
    faces with area < 1e-13 m^2                            : 0
    faces with skewness > 4   (internal) or 8   (boundary) : 0
    faces with interpolation weights (0..1)  < 0.05        : 0
    faces with volume ratio of neighbour cells < 0.02      : 0
    faces with face twist < 0.02                           : 0
    faces with triangle twist < 0.02                       : 0
    faces on cells with determinant < 0.001                : 0

Doing final balancing
---------------------

Found 0 zoned faces to keep together.
Found 0 separated coupled faces to keep together.
Refined mesh : cells:4642909  faces:14277863  points:4995203  unbalance:0.0077548364613651
Cells per refinement level:
    0	3583415
    1	2727
    2	7023
    3	30472
    4	99637
    5	116891
    6	271069
    7	531675
Writing mesh to time constant
Wrote mesh in = 0.34 s.
Mesh refined in = 377.53 s.

Morphing phase
--------------

Duplicating 0 points on faceZones of type boundary
Snapping to features in 20 iterations ...
Constructing mesh displacer ...
Using mesh parameters 
{
    maxNonOrtho     70;
    maxBoundarySkewness 8;
    maxInternalSkewness 4;
    maxConcave      80;
    minArea         1e-13;
    minVol          1e-18;
    minTwist        0.02;
    minFaceWeight   0.05;
    minVolRatio     0.02;
    minTetQuality   1e-12;
    minTriangleTwist 0.02;
    minDeterminant  0.001;
    errorReduction  0.75;
    nSmoothScale    10;
}


Checking initial mesh ...
Checking faces in error :
    non-orthogonality > 70  degrees                        : 0
    faces with face pyramid volume < 1e-18                 : 0
    faces with face-decomposition tet quality < 1e-12      : 0
    faces with concavity > 80  degrees                     : 0
    faces with area < 1e-13 m^2                            : 0
    faces with skewness > 4   (internal) or 8   (boundary) : 0
    faces with interpolation weights (0..1)  < 0.05        : 0
    faces with volume ratio of neighbour cells < 0.02      : 0
    faces with face twist < 0.02                           : 0
    faces with triangle twist < 0.02                       : 0
    faces on cells with determinant < 0.001                : 0
Detected 0 illegal faces (concave, zero area or negative cell pyramid volume)
Checked initial mesh in = 35.51 s


Smoothing patch points ...
Smoothing iteration 0
Found 132 non-manifold point(s).

Scaling iteration 0
Moving mesh using displacement scaling : min:1  max:1
Checking faces in error :
    non-orthogonality > 70  degrees                        : 0
    faces with face pyramid volume < 1e-18                 : 0
    faces with face-decomposition tet quality < 1e-12      : 0
    faces with concavity > 80  degrees                     : 0
    faces with area < 1e-13 m^2                            : 0
    faces with skewness > 4   (internal) or 8   (boundary) : 0
    faces with interpolation weights (0..1)  < 0.05        : 0
    faces with volume ratio of neighbour cells < 0.02      : 0
    faces with face twist < 0.02                           : 0
    faces with triangle twist < 0.02                       : 0
    faces on cells with determinant < 0.001                : 0
Successfully moved mesh

Smoothing iteration 1
Found 0 non-manifold point(s).

Scaling iteration 0
Moving mesh using displacement scaling : min:1  max:1
Checking faces in error :
    non-orthogonality > 70  degrees                        : 0
    faces with face pyramid volume < 1e-18                 : 0
    faces with face-decomposition tet quality < 1e-12      : 0
    faces with concavity > 80  degrees                     : 0
    faces with area < 1e-13 m^2                            : 0
    faces with skewness > 4   (internal) or 8   (boundary) : 0
    faces with interpolation weights (0..1)  < 0.05        : 0
    faces with volume ratio of neighbour cells < 0.02      : 0
    faces with face twist < 0.02                           : 0
    faces with triangle twist < 0.02                       : 3
    faces on cells with determinant < 0.001                : 0

Scaling iteration 1
Moving mesh using displacement scaling : min:0.75  max:1
Checking faces in error :
    non-orthogonality > 70  degrees                        : 0
    faces with face pyramid volume < 1e-18                 : 0
    faces with face-decomposition tet quality < 1e-12      : 0
    faces with concavity > 80  degrees                     : 0
    faces with area < 1e-13 m^2                            : 0
    faces with skewness > 4   (internal) or 8   (boundary) : 0
    faces with interpolation weights (0..1)  < 0.05        : 0
    faces with volume ratio of neighbour cells < 0.02      : 0
    faces with face twist < 0.02                           : 0
    faces with triangle twist < 0.02                       : 3
    faces on cells with determinant < 0.001                : 0

Scaling iteration 2
Moving mesh using displacement scaling : min:0.5625  max:1
Checking faces in error :
    non-orthogonality > 70  degrees                        : 0
    faces with face pyramid volume < 1e-18                 : 0
    faces with face-decomposition tet quality < 1e-12      : 0
    faces with concavity > 80  degrees                     : 0
    faces with area < 1e-13 m^2                            : 0
    faces with skewness > 4   (internal) or 8   (boundary) : 0
    faces with interpolation weights (0..1)  < 0.05        : 0
    faces with volume ratio of neighbour cells < 0.02      : 0
    faces with face twist < 0.02                           : 0
    faces with triangle twist < 0.02                       : 2
    faces on cells with determinant < 0.001                : 0

Scaling iteration 3
Moving mesh using displacement scaling : min:0.421875  max:1
Checking faces in error :
    non-orthogonality > 70  degrees                        : 0
    faces with face pyramid volume < 1e-18                 : 0
    faces with face-decomposition tet quality < 1e-12      : 0
    faces with concavity > 80  degrees                     : 0
    faces with area < 1e-13 m^2                            : 0
    faces with skewness > 4   (internal) or 8   (boundary) : 0
    faces with interpolation weights (0..1)  < 0.05        : 0
    faces with volume ratio of neighbour cells < 0.02      : 0
    faces with face twist < 0.02                           : 0
    faces with triangle twist < 0.02                       : 2
    faces on cells with determinant < 0.001                : 0

Scaling iteration 4
Moving mesh using displacement scaling : min:0.31640625  max:1
Checking faces in error :
    non-orthogonality > 70  degrees                        : 0
    faces with face pyramid volume < 1e-18                 : 0
    faces with face-decomposition tet quality < 1e-12      : 0
    faces with concavity > 80  degrees                     : 0
    faces with area < 1e-13 m^2                            : 0
    faces with skewness > 4   (internal) or 8   (boundary) : 0
    faces with interpolation weights (0..1)  < 0.05        : 0
    faces with volume ratio of neighbour cells < 0.02      : 0
    faces with face twist < 0.02                           : 0
    faces with triangle twist < 0.02                       : 2
    faces on cells with determinant < 0.001                : 0

Scaling iteration 5
Moving mesh using displacement scaling : min:0.2373046875  max:1
Checking faces in error :
    non-orthogonality > 70  degrees                        : 0
    faces with face pyramid volume < 1e-18                 : 0
    faces with face-decomposition tet quality < 1e-12      : 0
    faces with concavity > 80  degrees                     : 0
    faces with area < 1e-13 m^2                            : 0
    faces with skewness > 4   (internal) or 8   (boundary) : 0
    faces with interpolation weights (0..1)  < 0.05        : 0
    faces with volume ratio of neighbour cells < 0.02      : 0
    faces with face twist < 0.02                           : 0
    faces with triangle twist < 0.02                       : 1
    faces on cells with determinant < 0.001                : 0

Scaling iteration 6
Moving mesh using displacement scaling : min:0.177978515625  max:1
Checking faces in error :
    non-orthogonality > 70  degrees                        : 0
    faces with face pyramid volume < 1e-18                 : 0
    faces with face-decomposition tet quality < 1e-12      : 0
    faces with concavity > 80  degrees                     : 0
    faces with area < 1e-13 m^2                            : 0
    faces with skewness > 4   (internal) or 8   (boundary) : 0
    faces with interpolation weights (0..1)  < 0.05        : 0
    faces with volume ratio of neighbour cells < 0.02      : 0
    faces with face twist < 0.02                           : 0
    faces with triangle twist < 0.02                       : 0
    faces on cells with determinant < 0.001                : 0
Successfully moved mesh

Smoothing iteration 2
Found 0 non-manifold point(s).

Scaling iteration 0
Moving mesh using displacement scaling : min:1  max:1
Checking faces in error :
    non-orthogonality > 70  degrees                        : 0
    faces with face pyramid volume < 1e-18                 : 0
    faces with face-decomposition tet quality < 1e-12      : 0
    faces with concavity > 80  degrees                     : 0
    faces with area < 1e-13 m^2                            : 0
    faces with skewness > 4   (internal) or 8   (boundary) : 0
    faces with interpolation weights (0..1)  < 0.05        : 0
    faces with volume ratio of neighbour cells < 0.02      : 0
    faces with face twist < 0.02                           : 0
    faces with triangle twist < 0.02                       : 3
    faces on cells with determinant < 0.001                : 0

Scaling iteration 1
Moving mesh using displacement scaling : min:0.75  max:1
Checking faces in error :
    non-orthogonality > 70  degrees                        : 0
    faces with face pyramid volume < 1e-18                 : 0
    faces with face-decomposition tet quality < 1e-12      : 0
    faces with concavity > 80  degrees                     : 0
    faces with area < 1e-13 m^2                            : 0
    faces with skewness > 4   (internal) or 8   (boundary) : 0
    faces with interpolation weights (0..1)  < 0.05        : 0
    faces with volume ratio of neighbour cells < 0.02      : 0
    faces with face twist < 0.02                           : 0
    faces with triangle twist < 0.02                       : 3
    faces on cells with determinant < 0.001                : 0

Scaling iteration 2
Moving mesh using displacement scaling : min:0.5625  max:1
Checking faces in error :
    non-orthogonality > 70  degrees                        : 0
    faces with face pyramid volume < 1e-18                 : 0
    faces with face-decomposition tet quality < 1e-12      : 0
    faces with concavity > 80  degrees                     : 0
    faces with area < 1e-13 m^2                            : 0
    faces with skewness > 4   (internal) or 8   (boundary) : 0
    faces with interpolation weights (0..1)  < 0.05        : 0
    faces with volume ratio of neighbour cells < 0.02      : 0
    faces with face twist < 0.02                           : 0
    faces with triangle twist < 0.02                       : 3
    faces on cells with determinant < 0.001                : 0

Scaling iteration 3
Moving mesh using displacement scaling : min:0.421875  max:1
Checking faces in error :
    non-orthogonality > 70  degrees                        : 0
    faces with face pyramid volume < 1e-18                 : 0
    faces with face-decomposition tet quality < 1e-12      : 0
    faces with concavity > 80  degrees                     : 0
    faces with area < 1e-13 m^2                            : 0
    faces with skewness > 4   (internal) or 8   (boundary) : 0
    faces with interpolation weights (0..1)  < 0.05        : 0
    faces with volume ratio of neighbour cells < 0.02      : 0
    faces with face twist < 0.02                           : 0
    faces with triangle twist < 0.02                       : 3
    faces on cells with determinant < 0.001                : 0

Scaling iteration 4
Moving mesh using displacement scaling : min:0.31640625  max:1
Checking faces in error :
    non-orthogonality > 70  degrees                        : 0
    faces with face pyramid volume < 1e-18                 : 0
    faces with face-decomposition tet quality < 1e-12      : 0
    faces with concavity > 80  degrees                     : 0
    faces with area < 1e-13 m^2                            : 0
    faces with skewness > 4   (internal) or 8   (boundary) : 0
    faces with interpolation weights (0..1)  < 0.05        : 0
    faces with volume ratio of neighbour cells < 0.02      : 0
    faces with face twist < 0.02                           : 0
    faces with triangle twist < 0.02                       : 3
    faces on cells with determinant < 0.001                : 0

Scaling iteration 5
Moving mesh using displacement scaling : min:0.2373046875  max:1
Checking faces in error :
    non-orthogonality > 70  degrees                        : 0
    faces with face pyramid volume < 1e-18                 : 0
    faces with face-decomposition tet quality < 1e-12      : 0
    faces with concavity > 80  degrees                     : 0
    faces with area < 1e-13 m^2                            : 0
    faces with skewness > 4   (internal) or 8   (boundary) : 0
    faces with interpolation weights (0..1)  < 0.05        : 0
    faces with volume ratio of neighbour cells < 0.02      : 0
    faces with face twist < 0.02                           : 0
    faces with triangle twist < 0.02                       : 2
    faces on cells with determinant < 0.001                : 0

Scaling iteration 6
Moving mesh using displacement scaling : min:0.177978515625  max:1
Checking faces in error :
    non-orthogonality > 70  degrees                        : 0
    faces with face pyramid volume < 1e-18                 : 0
    faces with face-decomposition tet quality < 1e-12      : 0
    faces with concavity > 80  degrees                     : 0
    faces with area < 1e-13 m^2                            : 0
    faces with skewness > 4   (internal) or 8   (boundary) : 0
    faces with interpolation weights (0..1)  < 0.05        : 0
    faces with volume ratio of neighbour cells < 0.02      : 0
    faces with face twist < 0.02                           : 0
    faces with triangle twist < 0.02                       : 2
    faces on cells with determinant < 0.001                : 0

Scaling iteration 7
Moving mesh using displacement scaling : min:0.13348388671875  max:1
Checking faces in error :
    non-orthogonality > 70  degrees                        : 0
    faces with face pyramid volume < 1e-18                 : 0
    faces with face-decomposition tet quality < 1e-12      : 0
    faces with concavity > 80  degrees                     : 0
    faces with area < 1e-13 m^2                            : 0
    faces with skewness > 4   (internal) or 8   (boundary) : 0
    faces with interpolation weights (0..1)  < 0.05        : 0
    faces with volume ratio of neighbour cells < 0.02      : 0
    faces with face twist < 0.02                           : 0
    faces with triangle twist < 0.02                       : 2
    faces on cells with determinant < 0.001                : 0

Scaling iteration 8
Moving mesh using displacement scaling : min:0.1001129150390625  max:1
Checking faces in error :
    non-orthogonality > 70  degrees                        : 0
    faces with face pyramid volume < 1e-18                 : 0
    faces with face-decomposition tet quality < 1e-12      : 0
    faces with concavity > 80  degrees                     : 0
    faces with area < 1e-13 m^2                            : 0
    faces with skewness > 4   (internal) or 8   (boundary) : 0
    faces with interpolation weights (0..1)  < 0.05        : 0
    faces with volume ratio of neighbour cells < 0.02      : 0
    faces with face twist < 0.02                           : 0
    faces with triangle twist < 0.02                       : 1
    faces on cells with determinant < 0.001                : 0

Scaling iteration 9
Moving mesh using displacement scaling : min:0.07508468627929688  max:1
Checking faces in error :
    non-orthogonality > 70  degrees                        : 0
    faces with face pyramid volume < 1e-18                 : 0
    faces with face-decomposition tet quality < 1e-12      : 0
    faces with concavity > 80  degrees                     : 0
    faces with area < 1e-13 m^2                            : 0
    faces with skewness > 4   (internal) or 8   (boundary) : 0
    faces with interpolation weights (0..1)  < 0.05        : 0
    faces with volume ratio of neighbour cells < 0.02      : 0
    faces with face twist < 0.02                           : 0
    faces with triangle twist < 0.02                       : 1
    faces on cells with determinant < 0.001                : 0

Scaling iteration 10
Displacement scaling for error reduction set to 0.
Moving mesh using displacement scaling : min:0.05631351470947266  max:1
Checking faces in error :
    non-orthogonality > 70  degrees                        : 0
    faces with face pyramid volume < 1e-18                 : 0
    faces with face-decomposition tet quality < 1e-12      : 0
    faces with concavity > 80  degrees                     : 0
    faces with area < 1e-13 m^2                            : 0
    faces with skewness > 4   (internal) or 8   (boundary) : 0
    faces with interpolation weights (0..1)  < 0.05        : 0
    faces with volume ratio of neighbour cells < 0.02      : 0
    faces with face twist < 0.02                           : 0
    faces with triangle twist < 0.02                       : 1
    faces on cells with determinant < 0.001                : 0

Scaling iteration 11
Moving mesh using displacement scaling : min:0  max:1
Checking faces in error :
    non-orthogonality > 70  degrees                        : 0
    faces with face pyramid volume < 1e-18                 : 0
    faces with face-decomposition tet quality < 1e-12      : 0
    faces with concavity > 80  degrees                     : 0
    faces with area < 1e-13 m^2                            : 0
    faces with skewness > 4   (internal) or 8   (boundary) : 0
    faces with interpolation weights (0..1)  < 0.05        : 0
    faces with volume ratio of neighbour cells < 0.02      : 0
    faces with face twist < 0.02                           : 0
    faces with triangle twist < 0.02                       : 0
    faces on cells with determinant < 0.001                : 0
Successfully moved mesh

Smoothing iteration 3
Found 0 non-manifold point(s).

Scaling iteration 0
Moving mesh using displacement scaling : min:1  max:1
Checking faces in error :
    non-orthogonality > 70  degrees                        : 0
    faces with face pyramid volume < 1e-18                 : 0
    faces with face-decomposition tet quality < 1e-12      : 0
    faces with concavity > 80  degrees                     : 0
    faces with area < 1e-13 m^2                            : 0
    faces with skewness > 4   (internal) or 8   (boundary) : 0
    faces with interpolation weights (0..1)  < 0.05        : 0
    faces with volume ratio of neighbour cells < 0.02      : 0
    faces with face twist < 0.02                           : 0
    faces with triangle twist < 0.02                       : 46
    faces on cells with determinant < 0.001                : 0

Scaling iteration 1
Moving mesh using displacement scaling : min:0.75  max:1
Checking faces in error :
    non-orthogonality > 70  degrees                        : 0
    faces with face pyramid volume < 1e-18                 : 0
    faces with face-decomposition tet quality < 1e-12      : 0
    faces with concavity > 80  degrees                     : 0
    faces with area < 1e-13 m^2                            : 0
    faces with skewness > 4   (internal) or 8   (boundary) : 0
    faces with interpolation weights (0..1)  < 0.05        : 0
    faces with volume ratio of neighbour cells < 0.02      : 0
    faces with face twist < 0.02                           : 0
    faces with triangle twist < 0.02                       : 46
    faces on cells with determinant < 0.001                : 0

Scaling iteration 2
Moving mesh using displacement scaling : min:0.5625  max:1
Checking faces in error :
    non-orthogonality > 70  degrees                        : 0
    faces with face pyramid volume < 1e-18                 : 0
    faces with face-decomposition tet quality < 1e-12      : 0
    faces with concavity > 80  degrees                     : 0
    faces with area < 1e-13 m^2                            : 0
    faces with skewness > 4   (internal) or 8   (boundary) : 0
    faces with interpolation weights (0..1)  < 0.05        : 0
    faces with volume ratio of neighbour cells < 0.02      : 0
    faces with face twist < 0.02                           : 0
    faces with triangle twist < 0.02                       : 46
    faces on cells with determinant < 0.001                : 0

Scaling iteration 3
Moving mesh using displacement scaling : min:0.421875  max:1
Checking faces in error :
    non-orthogonality > 70  degrees                        : 0
    faces with face pyramid volume < 1e-18                 : 0
    faces with face-decomposition tet quality < 1e-12      : 0
    faces with concavity > 80  degrees                     : 0
    faces with area < 1e-13 m^2                            : 0
    faces with skewness > 4   (internal) or 8   (boundary) : 0
    faces with interpolation weights (0..1)  < 0.05        : 0
    faces with volume ratio of neighbour cells < 0.02      : 0
    faces with face twist < 0.02                           : 0
    faces with triangle twist < 0.02                       : 46
    faces on cells with determinant < 0.001                : 0

Scaling iteration 4
Moving mesh using displacement scaling : min:0.31640625  max:1
Checking faces in error :
    non-orthogonality > 70  degrees                        : 0
    faces with face pyramid volume < 1e-18                 : 0
    faces with face-decomposition tet quality < 1e-12      : 0
    faces with concavity > 80  degrees                     : 0
    faces with area < 1e-13 m^2                            : 0
    faces with skewness > 4   (internal) or 8   (boundary) : 0
    faces with interpolation weights (0..1)  < 0.05        : 0
    faces with volume ratio of neighbour cells < 0.02      : 0
    faces with face twist < 0.02                           : 0
    faces with triangle twist < 0.02                       : 44
    faces on cells with determinant < 0.001                : 0

Scaling iteration 5
Moving mesh using displacement scaling : min:0.2373046875  max:1
Checking faces in error :
    non-orthogonality > 70  degrees                        : 0
    faces with face pyramid volume < 1e-18                 : 0
    faces with face-decomposition tet quality < 1e-12      : 0
    faces with concavity > 80  degrees                     : 0
    faces with area < 1e-13 m^2                            : 0
    faces with skewness > 4   (internal) or 8   (boundary) : 0
    faces with interpolation weights (0..1)  < 0.05        : 0
    faces with volume ratio of neighbour cells < 0.02      : 0
    faces with face twist < 0.02                           : 0
    faces with triangle twist < 0.02                       : 5
    faces on cells with determinant < 0.001                : 0

Scaling iteration 6
Moving mesh using displacement scaling : min:0.177978515625  max:1
Checking faces in error :
    non-orthogonality > 70  degrees                        : 0
    faces with face pyramid volume < 1e-18                 : 0
    faces with face-decomposition tet quality < 1e-12      : 0
    faces with concavity > 80  degrees                     : 0
    faces with area < 1e-13 m^2                            : 0
    faces with skewness > 4   (internal) or 8   (boundary) : 0
    faces with interpolation weights (0..1)  < 0.05        : 0
    faces with volume ratio of neighbour cells < 0.02      : 0
    faces with face twist < 0.02                           : 0
    faces with triangle twist < 0.02                       : 5
    faces on cells with determinant < 0.001                : 0

Scaling iteration 7
Moving mesh using displacement scaling : min:0.13348388671875  max:1
Checking faces in error :
    non-orthogonality > 70  degrees                        : 0
    faces with face pyramid volume < 1e-18                 : 0
    faces with face-decomposition tet quality < 1e-12      : 0
    faces with concavity > 80  degrees                     : 0
    faces with area < 1e-13 m^2                            : 0
    faces with skewness > 4   (internal) or 8   (boundary) : 0
    faces with interpolation weights (0..1)  < 0.05        : 0
    faces with volume ratio of neighbour cells < 0.02      : 0
    faces with face twist < 0.02                           : 0
    faces with triangle twist < 0.02                       : 5
    faces on cells with determinant < 0.001                : 0

Scaling iteration 8
Moving mesh using displacement scaling : min:0.1001129150390625  max:1
Checking faces in error :
    non-orthogonality > 70  degrees                        : 0
    faces with face pyramid volume < 1e-18                 : 0
    faces with face-decomposition tet quality < 1e-12      : 0
    faces with concavity > 80  degrees                     : 0
    faces with area < 1e-13 m^2                            : 0
    faces with skewness > 4   (internal) or 8   (boundary) : 0
    faces with interpolation weights (0..1)  < 0.05        : 0
    faces with volume ratio of neighbour cells < 0.02      : 0
    faces with face twist < 0.02                           : 0
    faces with triangle twist < 0.02                       : 3
    faces on cells with determinant < 0.001                : 0

Scaling iteration 9
Moving mesh using displacement scaling : min:0.07508468627929688  max:1
Checking faces in error :
    non-orthogonality > 70  degrees                        : 0
    faces with face pyramid volume < 1e-18                 : 0
    faces with face-decomposition tet quality < 1e-12      : 0
    faces with concavity > 80  degrees                     : 0
    faces with area < 1e-13 m^2                            : 0
    faces with skewness > 4   (internal) or 8   (boundary) : 0
    faces with interpolation weights (0..1)  < 0.05        : 0
    faces with volume ratio of neighbour cells < 0.02      : 0
    faces with face twist < 0.02                           : 0
    faces with triangle twist < 0.02                       : 2
    faces on cells with determinant < 0.001                : 0

Scaling iteration 10
Displacement scaling for error reduction set to 0.
Moving mesh using displacement scaling : min:0.05631351470947266  max:1
Checking faces in error :
    non-orthogonality > 70  degrees                        : 0
    faces with face pyramid volume < 1e-18                 : 0
    faces with face-decomposition tet quality < 1e-12      : 0
    faces with concavity > 80  degrees                     : 0
    faces with area < 1e-13 m^2                            : 0
    faces with skewness > 4   (internal) or 8   (boundary) : 0
    faces with interpolation weights (0..1)  < 0.05        : 0
    faces with volume ratio of neighbour cells < 0.02      : 0
    faces with face twist < 0.02                           : 0
    faces with triangle twist < 0.02                       : 1
    faces on cells with determinant < 0.001                : 0

Scaling iteration 11
Moving mesh using displacement scaling : min:0  max:1
Checking faces in error :
    non-orthogonality > 70  degrees                        : 0
    faces with face pyramid volume < 1e-18                 : 0
    faces with face-decomposition tet quality < 1e-12      : 0
    faces with concavity > 80  degrees                     : 0
    faces with area < 1e-13 m^2                            : 0
    faces with skewness > 4   (internal) or 8   (boundary) : 0
    faces with interpolation weights (0..1)  < 0.05        : 0
    faces with volume ratio of neighbour cells < 0.02      : 0
    faces with face twist < 0.02                           : 0
    faces with triangle twist < 0.02                       : 0
    faces on cells with determinant < 0.001                : 0
Successfully moved mesh

Smoothing iteration 4
Found 0 non-manifold point(s).

Scaling iteration 0
Moving mesh using displacement scaling : min:1  max:1
Checking faces in error :
    non-orthogonality > 70  degrees                        : 0
    faces with face pyramid volume < 1e-18                 : 0
    faces with face-decomposition tet quality < 1e-12      : 0
    faces with concavity > 80  degrees                     : 0
    faces with area < 1e-13 m^2                            : 0
    faces with skewness > 4   (internal) or 8   (boundary) : 0
    faces with interpolation weights (0..1)  < 0.05        : 0
    faces with volume ratio of neighbour cells < 0.02      : 0
    faces with face twist < 0.02                           : 0
    faces with triangle twist < 0.02                       : 49
    faces on cells with determinant < 0.001                : 0

Scaling iteration 1
Moving mesh using displacement scaling : min:0.75  max:1
Checking faces in error :
    non-orthogonality > 70  degrees                        : 0
    faces with face pyramid volume < 1e-18                 : 0
    faces with face-decomposition tet quality < 1e-12      : 0
    faces with concavity > 80  degrees                     : 0
    faces with area < 1e-13 m^2                            : 0
    faces with skewness > 4   (internal) or 8   (boundary) : 0
    faces with interpolation weights (0..1)  < 0.05        : 0
    faces with volume ratio of neighbour cells < 0.02      : 0
    faces with face twist < 0.02                           : 0
    faces with triangle twist < 0.02                       : 46
    faces on cells with determinant < 0.001                : 0

Scaling iteration 2
Moving mesh using displacement scaling : min:0.5625  max:1
Checking faces in error :
    non-orthogonality > 70  degrees                        : 0
    faces with face pyramid volume < 1e-18                 : 0
    faces with face-decomposition tet quality < 1e-12      : 0
    faces with concavity > 80  degrees                     : 0
    faces with area < 1e-13 m^2                            : 0
    faces with skewness > 4   (internal) or 8   (boundary) : 0
    faces with interpolation weights (0..1)  < 0.05        : 0
    faces with volume ratio of neighbour cells < 0.02      : 0
    faces with face twist < 0.02                           : 0
    faces with triangle twist < 0.02                       : 46
    faces on cells with determinant < 0.001                : 0

Scaling iteration 3
Moving mesh using displacement scaling : min:0.421875  max:1
Checking faces in error :
    non-orthogonality > 70  degrees                        : 0
    faces with face pyramid volume < 1e-18                 : 0
    faces with face-decomposition tet quality < 1e-12      : 0
    faces with concavity > 80  degrees                     : 0
    faces with area < 1e-13 m^2                            : 0
    faces with skewness > 4   (internal) or 8   (boundary) : 0
    faces with interpolation weights (0..1)  < 0.05        : 0
    faces with volume ratio of neighbour cells < 0.02      : 0
    faces with face twist < 0.02                           : 0
    faces with triangle twist < 0.02                       : 46
    faces on cells with determinant < 0.001                : 0

Scaling iteration 4
Moving mesh using displacement scaling : min:0.31640625  max:1
Checking faces in error :
    non-orthogonality > 70  degrees                        : 0
    faces with face pyramid volume < 1e-18                 : 0
    faces with face-decomposition tet quality < 1e-12      : 0
    faces with concavity > 80  degrees                     : 0
    faces with area < 1e-13 m^2                            : 0
    faces with skewness > 4   (internal) or 8   (boundary) : 0
    faces with interpolation weights (0..1)  < 0.05        : 0
    faces with volume ratio of neighbour cells < 0.02      : 0
    faces with face twist < 0.02                           : 0
    faces with triangle twist < 0.02                       : 46
    faces on cells with determinant < 0.001                : 0

Scaling iteration 5
Moving mesh using displacement scaling : min:0.2373046875  max:1
Checking faces in error :
    non-orthogonality > 70  degrees                        : 0
    faces with face pyramid volume < 1e-18                 : 0
    faces with face-decomposition tet quality < 1e-12      : 0
    faces with concavity > 80  degrees                     : 0
    faces with area < 1e-13 m^2                            : 0
    faces with skewness > 4   (internal) or 8   (boundary) : 0
    faces with interpolation weights (0..1)  < 0.05        : 0
    faces with volume ratio of neighbour cells < 0.02      : 0
    faces with face twist < 0.02                           : 0
    faces with triangle twist < 0.02                       : 46
    faces on cells with determinant < 0.001                : 0

Scaling iteration 6
Moving mesh using displacement scaling : min:0.177978515625  max:1
Checking faces in error :
    non-orthogonality > 70  degrees                        : 0
    faces with face pyramid volume < 1e-18                 : 0
    faces with face-decomposition tet quality < 1e-12      : 0
    faces with concavity > 80  degrees                     : 0
    faces with area < 1e-13 m^2                            : 0
    faces with skewness > 4   (internal) or 8   (boundary) : 0
    faces with interpolation weights (0..1)  < 0.05        : 0
    faces with volume ratio of neighbour cells < 0.02      : 0
    faces with face twist < 0.02                           : 0
    faces with triangle twist < 0.02                       : 46
    faces on cells with determinant < 0.001                : 0

Scaling iteration 7
Moving mesh using displacement scaling : min:0.13348388671875  max:1
Checking faces in error :
    non-orthogonality > 70  degrees                        : 0
    faces with face pyramid volume < 1e-18                 : 0
    faces with face-decomposition tet quality < 1e-12      : 0
    faces with concavity > 80  degrees                     : 0
    faces with area < 1e-13 m^2                            : 0
    faces with skewness > 4   (internal) or 8   (boundary) : 0
    faces with interpolation weights (0..1)  < 0.05        : 0
    faces with volume ratio of neighbour cells < 0.02      : 0
    faces with face twist < 0.02                           : 0
    faces with triangle twist < 0.02                       : 46
    faces on cells with determinant < 0.001                : 0

Scaling iteration 8
Moving mesh using displacement scaling : min:0.1001129150390625  max:1
Checking faces in error :
    non-orthogonality > 70  degrees                        : 0
    faces with face pyramid volume < 1e-18                 : 0
    faces with face-decomposition tet quality < 1e-12      : 0
    faces with concavity > 80  degrees                     : 0
    faces with area < 1e-13 m^2                            : 0
    faces with skewness > 4   (internal) or 8   (boundary) : 0
    faces with interpolation weights (0..1)  < 0.05        : 0
    faces with volume ratio of neighbour cells < 0.02      : 0
    faces with face twist < 0.02                           : 0
    faces with triangle twist < 0.02                       : 45
    faces on cells with determinant < 0.001                : 0

Scaling iteration 9
Moving mesh using displacement scaling : min:0.07508468627929688  max:1
Checking faces in error :
    non-orthogonality > 70  degrees                        : 0
    faces with face pyramid volume < 1e-18                 : 0
    faces with face-decomposition tet quality < 1e-12      : 0
    faces with concavity > 80  degrees                     : 0
    faces with area < 1e-13 m^2                            : 0
    faces with skewness > 4   (internal) or 8   (boundary) : 0
    faces with interpolation weights (0..1)  < 0.05        : 0
    faces with volume ratio of neighbour cells < 0.02      : 0
    faces with face twist < 0.02                           : 0
    faces with triangle twist < 0.02                       : 45
    faces on cells with determinant < 0.001                : 0

Scaling iteration 10
Displacement scaling for error reduction set to 0.
Moving mesh using displacement scaling : min:0.05631351470947266  max:1
Checking faces in error :
    non-orthogonality > 70  degrees                        : 0
    faces with face pyramid volume < 1e-18                 : 0
    faces with face-decomposition tet quality < 1e-12      : 0
    faces with concavity > 80  degrees                     : 0
    faces with area < 1e-13 m^2                            : 0
    faces with skewness > 4   (internal) or 8   (boundary) : 0
    faces with interpolation weights (0..1)  < 0.05        : 0
    faces with volume ratio of neighbour cells < 0.02      : 0
    faces with face twist < 0.02                           : 0
    faces with triangle twist < 0.02                       : 45
    faces on cells with determinant < 0.001                : 0

Scaling iteration 11
Moving mesh using displacement scaling : min:0  max:1
Checking faces in error :
    non-orthogonality > 70  degrees                        : 0
    faces with face pyramid volume < 1e-18                 : 0
    faces with face-decomposition tet quality < 1e-12      : 0
    faces with concavity > 80  degrees                     : 0
    faces with area < 1e-13 m^2                            : 0
    faces with skewness > 4   (internal) or 8   (boundary) : 0
    faces with interpolation weights (0..1)  < 0.05        : 0
    faces with volume ratio of neighbour cells < 0.02      : 0
    faces with face twist < 0.02                           : 0
    faces with triangle twist < 0.02                       : 0
    faces on cells with determinant < 0.001                : 0
Successfully moved mesh

Smoothing iteration 5
Found 0 non-manifold point(s).

Scaling iteration 0
Moving mesh using displacement scaling : min:1  max:1
Checking faces in error :
    non-orthogonality > 70  degrees                        : 0
    faces with face pyramid volume < 1e-18                 : 0
    faces with face-decomposition tet quality < 1e-12      : 0
    faces with concavity > 80  degrees                     : 0
    faces with area < 1e-13 m^2                            : 0
    faces with skewness > 4   (internal) or 8   (boundary) : 0
    faces with interpolation weights (0..1)  < 0.05        : 0
    faces with volume ratio of neighbour cells < 0.02      : 0
    faces with face twist < 0.02                           : 0
    faces with triangle twist < 0.02                       : 50
    faces on cells with determinant < 0.001                : 0

Scaling iteration 1
Moving mesh using displacement scaling : min:0.75  max:1
Checking faces in error :
    non-orthogonality > 70  degrees                        : 0
    faces with face pyramid volume < 1e-18                 : 0
    faces with face-decomposition tet quality < 1e-12      : 0
    faces with concavity > 80  degrees                     : 0
    faces with area < 1e-13 m^2                            : 0
    faces with skewness > 4   (internal) or 8   (boundary) : 0
    faces with interpolation weights (0..1)  < 0.05        : 0
    faces with volume ratio of neighbour cells < 0.02      : 0
    faces with face twist < 0.02                           : 0
    faces with triangle twist < 0.02                       : 50
    faces on cells with determinant < 0.001                : 0

Scaling iteration 2
Moving mesh using displacement scaling : min:0.5625  max:1
Checking faces in error :
    non-orthogonality > 70  degrees                        : 0
    faces with face pyramid volume < 1e-18                 : 0
    faces with face-decomposition tet quality < 1e-12      : 0
    faces with concavity > 80  degrees                     : 0
    faces with area < 1e-13 m^2                            : 0
    faces with skewness > 4   (internal) or 8   (boundary) : 0
    faces with interpolation weights (0..1)  < 0.05        : 0
    faces with volume ratio of neighbour cells < 0.02      : 0
    faces with face twist < 0.02                           : 0
    faces with triangle twist < 0.02                       : 50
    faces on cells with determinant < 0.001                : 0

Scaling iteration 3
Moving mesh using displacement scaling : min:0.421875  max:1
Checking faces in error :
    non-orthogonality > 70  degrees                        : 0
    faces with face pyramid volume < 1e-18                 : 0
    faces with face-decomposition tet quality < 1e-12      : 0
    faces with concavity > 80  degrees                     : 0
    faces with area < 1e-13 m^2                            : 0
    faces with skewness > 4   (internal) or 8   (boundary) : 0
    faces with interpolation weights (0..1)  < 0.05        : 0
    faces with volume ratio of neighbour cells < 0.02      : 0
    faces with face twist < 0.02                           : 0
    faces with triangle twist < 0.02                       : 49
    faces on cells with determinant < 0.001                : 0

Scaling iteration 4
Moving mesh using displacement scaling : min:0.31640625  max:1
Checking faces in error :
    non-orthogonality > 70  degrees                        : 0
    faces with face pyramid volume < 1e-18                 : 0
    faces with face-decomposition tet quality < 1e-12      : 0
    faces with concavity > 80  degrees                     : 0
    faces with area < 1e-13 m^2                            : 0
    faces with skewness > 4   (internal) or 8   (boundary) : 0
    faces with interpolation weights (0..1)  < 0.05        : 0
    faces with volume ratio of neighbour cells < 0.02      : 0
    faces with face twist < 0.02                           : 0
    faces with triangle twist < 0.02                       : 49
    faces on cells with determinant < 0.001                : 0

Scaling iteration 5
Moving mesh using displacement scaling : min:0.2373046875  max:1
Checking faces in error :
    non-orthogonality > 70  degrees                        : 0
    faces with face pyramid volume < 1e-18                 : 0
    faces with face-decomposition tet quality < 1e-12      : 0
    faces with concavity > 80  degrees                     : 0
    faces with area < 1e-13 m^2                            : 0
    faces with skewness > 4   (internal) or 8   (boundary) : 0
    faces with interpolation weights (0..1)  < 0.05        : 0
    faces with volume ratio of neighbour cells < 0.02      : 0
    faces with face twist < 0.02                           : 0
    faces with triangle twist < 0.02                       : 49
    faces on cells with determinant < 0.001                : 0

Scaling iteration 6
Moving mesh using displacement scaling : min:0.177978515625  max:1
Checking faces in error :
    non-orthogonality > 70  degrees                        : 0
    faces with face pyramid volume < 1e-18                 : 0
    faces with face-decomposition tet quality < 1e-12      : 0
    faces with concavity > 80  degrees                     : 0
    faces with area < 1e-13 m^2                            : 0
    faces with skewness > 4   (internal) or 8   (boundary) : 0
    faces with interpolation weights (0..1)  < 0.05        : 0
    faces with volume ratio of neighbour cells < 0.02      : 0
    faces with face twist < 0.02                           : 0
    faces with triangle twist < 0.02                       : 46
    faces on cells with determinant < 0.001                : 0

Scaling iteration 7
Moving mesh using displacement scaling : min:0.13348388671875  max:1
Checking faces in error :
    non-orthogonality > 70  degrees                        : 0
    faces with face pyramid volume < 1e-18                 : 0
    faces with face-decomposition tet quality < 1e-12      : 0
    faces with concavity > 80  degrees                     : 0
    faces with area < 1e-13 m^2                            : 0
    faces with skewness > 4   (internal) or 8   (boundary) : 0
    faces with interpolation weights (0..1)  < 0.05        : 0
    faces with volume ratio of neighbour cells < 0.02      : 0
    faces with face twist < 0.02                           : 0
    faces with triangle twist < 0.02                       : 46
    faces on cells with determinant < 0.001                : 0

Scaling iteration 8
Moving mesh using displacement scaling : min:0.1001129150390625  max:1
Checking faces in error :
    non-orthogonality > 70  degrees                        : 0
    faces with face pyramid volume < 1e-18                 : 0
    faces with face-decomposition tet quality < 1e-12      : 0
    faces with concavity > 80  degrees                     : 0
    faces with area < 1e-13 m^2                            : 0
    faces with skewness > 4   (internal) or 8   (boundary) : 0
    faces with interpolation weights (0..1)  < 0.05        : 0
    faces with volume ratio of neighbour cells < 0.02      : 0
    faces with face twist < 0.02                           : 0
    faces with triangle twist < 0.02                       : 45
    faces on cells with determinant < 0.001                : 0

Scaling iteration 9
Moving mesh using displacement scaling : min:0.07508468627929688  max:1
Checking faces in error :
    non-orthogonality > 70  degrees                        : 0
    faces with face pyramid volume < 1e-18                 : 0
    faces with face-decomposition tet quality < 1e-12      : 0
    faces with concavity > 80  degrees                     : 0
    faces with area < 1e-13 m^2                            : 0
    faces with skewness > 4   (internal) or 8   (boundary) : 0
    faces with interpolation weights (0..1)  < 0.05        : 0
    faces with volume ratio of neighbour cells < 0.02      : 0
    faces with face twist < 0.02                           : 0
    faces with triangle twist < 0.02                       : 45
    faces on cells with determinant < 0.001                : 0

Scaling iteration 10
Displacement scaling for error reduction set to 0.
Moving mesh using displacement scaling : min:0.05631351470947266  max:1
Checking faces in error :
    non-orthogonality > 70  degrees                        : 0
    faces with face pyramid volume < 1e-18                 : 0
    faces with face-decomposition tet quality < 1e-12      : 0
    faces with concavity > 80  degrees                     : 0
    faces with area < 1e-13 m^2                            : 0
    faces with skewness > 4   (internal) or 8   (boundary) : 0
    faces with interpolation weights (0..1)  < 0.05        : 0
    faces with volume ratio of neighbour cells < 0.02      : 0
    faces with face twist < 0.02                           : 0
    faces with triangle twist < 0.02                       : 45
    faces on cells with determinant < 0.001                : 0

Scaling iteration 11
Moving mesh using displacement scaling : min:0  max:1
Checking faces in error :
    non-orthogonality > 70  degrees                        : 0
    faces with face pyramid volume < 1e-18                 : 0
    faces with face-decomposition tet quality < 1e-12      : 0
    faces with concavity > 80  degrees                     : 0
    faces with area < 1e-13 m^2                            : 0
    faces with skewness > 4   (internal) or 8   (boundary) : 0
    faces with interpolation weights (0..1)  < 0.05        : 0
    faces with volume ratio of neighbour cells < 0.02      : 0
    faces with face twist < 0.02                           : 0
    faces with triangle twist < 0.02                       : 0
    faces on cells with determinant < 0.001                : 0
Successfully moved mesh

Smoothing iteration 6
Found 0 non-manifold point(s).

Scaling iteration 0
Moving mesh using displacement scaling : min:1  max:1
Checking faces in error :
    non-orthogonality > 70  degrees                        : 0
    faces with face pyramid volume < 1e-18                 : 0
    faces with face-decomposition tet quality < 1e-12      : 0
    faces with concavity > 80  degrees                     : 0
    faces with area < 1e-13 m^2                            : 0
    faces with skewness > 4   (internal) or 8   (boundary) : 0
    faces with interpolation weights (0..1)  < 0.05        : 0
    faces with volume ratio of neighbour cells < 0.02      : 0
    faces with face twist < 0.02                           : 0
    faces with triangle twist < 0.02                       : 50
    faces on cells with determinant < 0.001                : 0

Scaling iteration 1
Moving mesh using displacement scaling : min:0.75  max:1
Checking faces in error :
    non-orthogonality > 70  degrees                        : 0
    faces with face pyramid volume < 1e-18                 : 0
    faces with face-decomposition tet quality < 1e-12      : 0
    faces with concavity > 80  degrees                     : 0
    faces with area < 1e-13 m^2                            : 0
    faces with skewness > 4   (internal) or 8   (boundary) : 0
    faces with interpolation weights (0..1)  < 0.05        : 0
    faces with volume ratio of neighbour cells < 0.02      : 0
    faces with face twist < 0.02                           : 0
    faces with triangle twist < 0.02                       : 50
    faces on cells with determinant < 0.001                : 0

Scaling iteration 2
Moving mesh using displacement scaling : min:0.5625  max:1
Checking faces in error :
    non-orthogonality > 70  degrees                        : 0
    faces with face pyramid volume < 1e-18                 : 0
    faces with face-decomposition tet quality < 1e-12      : 0
    faces with concavity > 80  degrees                     : 0
    faces with area < 1e-13 m^2                            : 0
    faces with skewness > 4   (internal) or 8   (boundary) : 0
    faces with interpolation weights (0..1)  < 0.05        : 0
    faces with volume ratio of neighbour cells < 0.02      : 0
    faces with face twist < 0.02                           : 0
    faces with triangle twist < 0.02                       : 50
    faces on cells with determinant < 0.001                : 0

Scaling iteration 3
Moving mesh using displacement scaling : min:0.421875  max:1
Checking faces in error :
    non-orthogonality > 70  degrees                        : 0
    faces with face pyramid volume < 1e-18                 : 0
    faces with face-decomposition tet quality < 1e-12      : 0
    faces with concavity > 80  degrees                     : 0
    faces with area < 1e-13 m^2                            : 0
    faces with skewness > 4   (internal) or 8   (boundary) : 0
    faces with interpolation weights (0..1)  < 0.05        : 0
    faces with volume ratio of neighbour cells < 0.02      : 0
    faces with face twist < 0.02                           : 0
    faces with triangle twist < 0.02                       : 50
    faces on cells with determinant < 0.001                : 0

Scaling iteration 4
Moving mesh using displacement scaling : min:0.31640625  max:1
Checking faces in error :
    non-orthogonality > 70  degrees                        : 0
    faces with face pyramid volume < 1e-18                 : 0
    faces with face-decomposition tet quality < 1e-12      : 0
    faces with concavity > 80  degrees                     : 0
    faces with area < 1e-13 m^2                            : 0
    faces with skewness > 4   (internal) or 8   (boundary) : 0
    faces with interpolation weights (0..1)  < 0.05        : 0
    faces with volume ratio of neighbour cells < 0.02      : 0
    faces with face twist < 0.02                           : 0
    faces with triangle twist < 0.02                       : 50
    faces on cells with determinant < 0.001                : 0

Scaling iteration 5
Moving mesh using displacement scaling : min:0.2373046875  max:1
Checking faces in error :
    non-orthogonality > 70  degrees                        : 0
    faces with face pyramid volume < 1e-18                 : 0
    faces with face-decomposition tet quality < 1e-12      : 0
    faces with concavity > 80  degrees                     : 0
    faces with area < 1e-13 m^2                            : 0
    faces with skewness > 4   (internal) or 8   (boundary) : 0
    faces with interpolation weights (0..1)  < 0.05        : 0
    faces with volume ratio of neighbour cells < 0.02      : 0
    faces with face twist < 0.02                           : 0
    faces with triangle twist < 0.02                       : 50
    faces on cells with determinant < 0.001                : 0

Scaling iteration 6
Moving mesh using displacement scaling : min:0.177978515625  max:1
Checking faces in error :
    non-orthogonality > 70  degrees                        : 0
    faces with face pyramid volume < 1e-18                 : 0
    faces with face-decomposition tet quality < 1e-12      : 0
    faces with concavity > 80  degrees                     : 0
[...]
    faces with interpolation weights (0..1)  < 0.05        : 0
    faces with volume ratio of neighbour cells < 0.02      : 0
    faces with face twist < 0.02                           : 0
    faces with triangle twist < 0.02                       : 1
    faces on cells with determinant < 0.001                : 0
displacementMedialAxis : Iteration 6
Moving mesh using displacement scaling : min:0  max:1
Checking faces in error :
    non-orthogonality > 70  degrees                        : 0
    faces with face pyramid volume < 1e-18                 : 0
    faces with face-decomposition tet quality < 1e-12      : 0
    faces with concavity > 80  degrees                     : 0
    faces with area < 1e-13 m^2                            : 0
    faces with skewness > 4   (internal) or 8   (boundary) : 0
    faces with interpolation weights (0..1)  < 0.05        : 0
    faces with volume ratio of neighbour cells < 0.02      : 0
    faces with face twist < 0.02                           : 0
    faces with triangle twist < 0.02                       : 0
    faces on cells with determinant < 0.001                : 0
displacementMedialAxis : Successfully moved mesh
displacementMedialAxis : Finished moving mesh ...
truncateDisplacement : Unextruded 0 faces due to non-consecutive vertices being extruded.
truncateDisplacement : Unextruded 0 faces due to stringed edges with inconsistent extrusion.

Setting up information for layer truncation ...
Detected 0 baffles across faceZones of type internal


Checking mesh with layer ...
Checking faces in error :
    non-orthogonality > 70  degrees                        : 0
    faces with face pyramid volume < 1e-18                 : 0
    faces with face-decomposition tet quality < 1e-12      : 0
    faces with concavity > 80  degrees                     : 0
    faces with area < 1e-13 m^2                            : 0
    faces with skewness > 4   (internal) or 8   (boundary) : 0
    faces with interpolation weights (0..1)  < 0.05        : 0
    faces with volume ratio of neighbour cells < 0.02      : 0
    faces with face twist < 0.02                           : 1
    faces with triangle twist < 0.02                       : 0
    faces on cells with determinant < 0.001                : 0
Detected 1 illegal faces (concave, zero area or negative cell pyramid volume)
Extruding 184895 out of 190055 faces (97.28499644839651%). Removed extrusion at 1 faces.
Added 1236584 out of 1520440 cells (81.3306674383731%).


Layer addition iteration 6
--------------------------

Determining displacement for added points according to pointNormal ...
Detected 0 points with point normal pointing through faces.
Reset displacement at 0 points to average of surrounding points.

displacementMedialAxis : Smoothing using Medial Axis ...
displacementMedialAxis : Reducing layer thickness at 0 nodes where thickness to medial axis distance is large 
displacementMedialAxis : Removing isolated regions ...
- if partially extruded faces make angle < 59.99999999999999
- if exclusively surrounded by non-extruded faces
displacementMedialAxis : Number of isolated points extrusion stopped : 0
fieldSmoother : Smoothing field ...
    Iteration 0   residual 5.432032361832328e-07
displacementMedialAxis : Moving mesh ...
displacementMedialAxis : Iteration 0
Moving mesh using displacement scaling : min:1  max:1
Checking faces in error :
    non-orthogonality > 70  degrees                        : 35
    faces with face pyramid volume < 1e-18                 : 0
    faces with face-decomposition tet quality < 1e-12      : 569
    faces with concavity > 80  degrees                     : 13
    faces with area < 1e-13 m^2                            : 0
    faces with skewness > 4   (internal) or 8   (boundary) : 0
    faces with interpolation weights (0..1)  < 0.05        : 0
    faces with volume ratio of neighbour cells < 0.02      : 0
    faces with face twist < 0.02                           : 0
    faces with triangle twist < 0.02                       : 2
    faces on cells with determinant < 0.001                : 0
displacementMedialAxis : Iteration 1
Moving mesh using displacement scaling : min:0.75  max:1
Checking faces in error :
    non-orthogonality > 70  degrees                        : 2
    faces with face pyramid volume < 1e-18                 : 0
    faces with face-decomposition tet quality < 1e-12      : 31
    faces with concavity > 80  degrees                     : 0
    faces with area < 1e-13 m^2                            : 0
    faces with skewness > 4   (internal) or 8   (boundary) : 0
    faces with interpolation weights (0..1)  < 0.05        : 0
    faces with volume ratio of neighbour cells < 0.02      : 0
    faces with face twist < 0.02                           : 0
    faces with triangle twist < 0.02                       : 2
    faces on cells with determinant < 0.001                : 0
displacementMedialAxis : Iteration 2
Moving mesh using displacement scaling : min:0.5625  max:1
Checking faces in error :
    non-orthogonality > 70  degrees                        : 0
    faces with face pyramid volume < 1e-18                 : 0
    faces with face-decomposition tet quality < 1e-12      : 1
    faces with concavity > 80  degrees                     : 0
    faces with area < 1e-13 m^2                            : 0
    faces with skewness > 4   (internal) or 8   (boundary) : 0
    faces with interpolation weights (0..1)  < 0.05        : 0
    faces with volume ratio of neighbour cells < 0.02      : 0
    faces with face twist < 0.02                           : 0
    faces with triangle twist < 0.02                       : 2
    faces on cells with determinant < 0.001                : 0
displacementMedialAxis : Iteration 3
Moving mesh using displacement scaling : min:0.421875  max:1
Checking faces in error :
    non-orthogonality > 70  degrees                        : 0
    faces with face pyramid volume < 1e-18                 : 0
    faces with face-decomposition tet quality < 1e-12      : 0
    faces with concavity > 80  degrees                     : 0
    faces with area < 1e-13 m^2                            : 0
    faces with skewness > 4   (internal) or 8   (boundary) : 0
    faces with interpolation weights (0..1)  < 0.05        : 0
    faces with volume ratio of neighbour cells < 0.02      : 0
    faces with face twist < 0.02                           : 0
    faces with triangle twist < 0.02                       : 1
    faces on cells with determinant < 0.001                : 0
displacementMedialAxis : Iteration 4
Moving mesh using displacement scaling : min:0.31640625  max:1
Checking faces in error :
    non-orthogonality > 70  degrees                        : 0
    faces with face pyramid volume < 1e-18                 : 0
    faces with face-decomposition tet quality < 1e-12      : 0
    faces with concavity > 80  degrees                     : 0
    faces with area < 1e-13 m^2                            : 0
    faces with skewness > 4   (internal) or 8   (boundary) : 0
    faces with interpolation weights (0..1)  < 0.05        : 0
    faces with volume ratio of neighbour cells < 0.02      : 0
    faces with face twist < 0.02                           : 0
    faces with triangle twist < 0.02                       : 1
    faces on cells with determinant < 0.001                : 0
displacementMedialAxis : Iteration 5
displacementMedialAxis : Displacement scaling for error reduction set to 0.
Moving mesh using displacement scaling : min:0.2373046875  max:1
Checking faces in error :
    non-orthogonality > 70  degrees                        : 0
    faces with face pyramid volume < 1e-18                 : 0
    faces with face-decomposition tet quality < 1e-12      : 0
    faces with concavity > 80  degrees                     : 0
    faces with area < 1e-13 m^2                            : 0
    faces with skewness > 4   (internal) or 8   (boundary) : 0
    faces with interpolation weights (0..1)  < 0.05        : 0
    faces with volume ratio of neighbour cells < 0.02      : 0
    faces with face twist < 0.02                           : 0
    faces with triangle twist < 0.02                       : 1
    faces on cells with determinant < 0.001                : 0
displacementMedialAxis : Iteration 6
Moving mesh using displacement scaling : min:0  max:1
Checking faces in error :
    non-orthogonality > 70  degrees                        : 0
    faces with face pyramid volume < 1e-18                 : 0
    faces with face-decomposition tet quality < 1e-12      : 0
    faces with concavity > 80  degrees                     : 0
    faces with area < 1e-13 m^2                            : 0
    faces with skewness > 4   (internal) or 8   (boundary) : 0
    faces with interpolation weights (0..1)  < 0.05        : 0
    faces with volume ratio of neighbour cells < 0.02      : 0
    faces with face twist < 0.02                           : 0
    faces with triangle twist < 0.02                       : 0
    faces on cells with determinant < 0.001                : 0
displacementMedialAxis : Successfully moved mesh
displacementMedialAxis : Finished moving mesh ...
truncateDisplacement : Unextruded 0 faces due to non-consecutive vertices being extruded.
truncateDisplacement : Unextruded 0 faces due to stringed edges with inconsistent extrusion.

Setting up information for layer truncation ...
Detected 0 baffles across faceZones of type internal


Checking mesh with layer ...
Checking faces in error :
    non-orthogonality > 70  degrees                        : 1
    faces with face pyramid volume < 1e-18                 : 0
    faces with face-decomposition tet quality < 1e-12      : 0
    faces with concavity > 80  degrees                     : 0
    faces with area < 1e-13 m^2                            : 0
    faces with skewness > 4   (internal) or 8   (boundary) : 0
    faces with interpolation weights (0..1)  < 0.05        : 0
    faces with volume ratio of neighbour cells < 0.02      : 0
    faces with face twist < 0.02                           : 0
    faces with triangle twist < 0.02                       : 0
    faces on cells with determinant < 0.001                : 0
Detected 1 illegal faces (concave, zero area or negative cell pyramid volume)
Extruding 184894 out of 190055 faces (97.28447028491752%). Removed extrusion at 1 faces.
Added 1236576 out of 1520440 cells (81.3301412748941%).


Layer addition iteration 7
--------------------------

Determining displacement for added points according to pointNormal ...
Detected 0 points with point normal pointing through faces.
Reset displacement at 0 points to average of surrounding points.

displacementMedialAxis : Smoothing using Medial Axis ...
displacementMedialAxis : Reducing layer thickness at 0 nodes where thickness to medial axis distance is large 
displacementMedialAxis : Removing isolated regions ...
- if partially extruded faces make angle < 59.99999999999999
- if exclusively surrounded by non-extruded faces
displacementMedialAxis : Number of isolated points extrusion stopped : 0
fieldSmoother : Smoothing field ...
    Iteration 0   residual 5.432138667129514e-07
displacementMedialAxis : Moving mesh ...
displacementMedialAxis : Iteration 0
Moving mesh using displacement scaling : min:1  max:1
Checking faces in error :
    non-orthogonality > 70  degrees                        : 35
    faces with face pyramid volume < 1e-18                 : 0
    faces with face-decomposition tet quality < 1e-12      : 569
    faces with concavity > 80  degrees                     : 13
    faces with area < 1e-13 m^2                            : 0
    faces with skewness > 4   (internal) or 8   (boundary) : 0
    faces with interpolation weights (0..1)  < 0.05        : 0
    faces with volume ratio of neighbour cells < 0.02      : 0
    faces with face twist < 0.02                           : 0
    faces with triangle twist < 0.02                       : 2
    faces on cells with determinant < 0.001                : 0
displacementMedialAxis : Iteration 1
Moving mesh using displacement scaling : min:0.75  max:1
Checking faces in error :
    non-orthogonality > 70  degrees                        : 2
    faces with face pyramid volume < 1e-18                 : 0
    faces with face-decomposition tet quality < 1e-12      : 31
    faces with concavity > 80  degrees                     : 0
    faces with area < 1e-13 m^2                            : 0
    faces with skewness > 4   (internal) or 8   (boundary) : 0
    faces with interpolation weights (0..1)  < 0.05        : 0
    faces with volume ratio of neighbour cells < 0.02      : 0
    faces with face twist < 0.02                           : 0
    faces with triangle twist < 0.02                       : 2
    faces on cells with determinant < 0.001                : 0
displacementMedialAxis : Iteration 2
Moving mesh using displacement scaling : min:0.5625  max:1
Checking faces in error :
    non-orthogonality > 70  degrees                        : 0
    faces with face pyramid volume < 1e-18                 : 0
    faces with face-decomposition tet quality < 1e-12      : 1
    faces with concavity > 80  degrees                     : 0
    faces with area < 1e-13 m^2                            : 0
    faces with skewness > 4   (internal) or 8   (boundary) : 0
    faces with interpolation weights (0..1)  < 0.05        : 0
    faces with volume ratio of neighbour cells < 0.02      : 0
    faces with face twist < 0.02                           : 0
    faces with triangle twist < 0.02                       : 2
    faces on cells with determinant < 0.001                : 0
displacementMedialAxis : Iteration 3
Moving mesh using displacement scaling : min:0.421875  max:1
Checking faces in error :
    non-orthogonality > 70  degrees                        : 0
    faces with face pyramid volume < 1e-18                 : 0
    faces with face-decomposition tet quality < 1e-12      : 0
    faces with concavity > 80  degrees                     : 0
    faces with area < 1e-13 m^2                            : 0
    faces with skewness > 4   (internal) or 8   (boundary) : 0
    faces with interpolation weights (0..1)  < 0.05        : 0
    faces with volume ratio of neighbour cells < 0.02      : 0
    faces with face twist < 0.02                           : 0
    faces with triangle twist < 0.02                       : 1
    faces on cells with determinant < 0.001                : 0
displacementMedialAxis : Iteration 4
Moving mesh using displacement scaling : min:0.31640625  max:1
Checking faces in error :
    non-orthogonality > 70  degrees                        : 0
    faces with face pyramid volume < 1e-18                 : 0
    faces with face-decomposition tet quality < 1e-12      : 0
    faces with concavity > 80  degrees                     : 0
    faces with area < 1e-13 m^2                            : 0
    faces with skewness > 4   (internal) or 8   (boundary) : 0
    faces with interpolation weights (0..1)  < 0.05        : 0
    faces with volume ratio of neighbour cells < 0.02      : 0
    faces with face twist < 0.02                           : 0
    faces with triangle twist < 0.02                       : 1
    faces on cells with determinant < 0.001                : 0
displacementMedialAxis : Iteration 5
displacementMedialAxis : Displacement scaling for error reduction set to 0.
Moving mesh using displacement scaling : min:0.2373046875  max:1
Checking faces in error :
    non-orthogonality > 70  degrees                        : 0
    faces with face pyramid volume < 1e-18                 : 0
    faces with face-decomposition tet quality < 1e-12      : 0
    faces with concavity > 80  degrees                     : 0
    faces with area < 1e-13 m^2                            : 0
    faces with skewness > 4   (internal) or 8   (boundary) : 0
    faces with interpolation weights (0..1)  < 0.05        : 0
    faces with volume ratio of neighbour cells < 0.02      : 0
    faces with face twist < 0.02                           : 0
    faces with triangle twist < 0.02                       : 1
    faces on cells with determinant < 0.001                : 0
displacementMedialAxis : Iteration 6
Moving mesh using displacement scaling : min:0  max:1
Checking faces in error :
    non-orthogonality > 70  degrees                        : 0
    faces with face pyramid volume < 1e-18                 : 0
    faces with face-decomposition tet quality < 1e-12      : 0
    faces with concavity > 80  degrees                     : 0
    faces with area < 1e-13 m^2                            : 0
    faces with skewness > 4   (internal) or 8   (boundary) : 0
    faces with interpolation weights (0..1)  < 0.05        : 0
    faces with volume ratio of neighbour cells < 0.02      : 0
    faces with face twist < 0.02                           : 0
    faces with triangle twist < 0.02                       : 0
    faces on cells with determinant < 0.001                : 0
displacementMedialAxis : Successfully moved mesh
displacementMedialAxis : Finished moving mesh ...
truncateDisplacement : Unextruded 0 faces due to non-consecutive vertices being extruded.
truncateDisplacement : Unextruded 0 faces due to stringed edges with inconsistent extrusion.

Setting up information for layer truncation ...
Detected 0 baffles across faceZones of type internal


Checking mesh with layer ...
Checking faces in error :
    non-orthogonality > 70  degrees                        : 0
    faces with face pyramid volume < 1e-18                 : 0
    faces with face-decomposition tet quality < 1e-12      : 0
    faces with concavity > 80  degrees                     : 0
    faces with area < 1e-13 m^2                            : 0
    faces with skewness > 4   (internal) or 8   (boundary) : 0
    faces with interpolation weights (0..1)  < 0.05        : 0
    faces with volume ratio of neighbour cells < 0.02      : 0
    faces with face twist < 0.02                           : 0
    faces with triangle twist < 0.02                       : 0
    faces on cells with determinant < 0.001                : 0
Detected 0 illegal faces (concave, zero area or negative cell pyramid volume)
Extruding 184894 out of 190055 faces (97.28447028491752%). Removed extrusion at 0 faces.
Added 1236568 out of 1520440 cells (81.32961511141512%).
Edge intersection testing:
    Number of edges             : 18065011
    Number of edges to retest   : 0
    Number of intersected edges : 1426748
Mesh with layers : cells:5879477  faces:18065011  points:6324343  unbalance:0.651935707886943

patch faces        layers        overall thickness
             target   mesh     [m]       [%]
----- -----    -----    ----     ---       ---
Fin 190055   8        6.51     8.63e-05  91.6    


Doing final balancing
---------------------

Layer mesh : cells:5879477  faces:18065011  points:6324343  unbalance:0.006540547739195102
Cells per refinement level:
    0	3583415
    1	2727
    2	7023
    3	30503
    4	254171
    5	224938
    6	482165
    7	1294535
Writing mesh to time constant
Wrote mesh in = 0.42 s.
Layers added in = 448.32 s.
Checking final mesh ...
Checking faces in error :
    non-orthogonality > 70  degrees                        : 0
    faces with face pyramid volume < 1e-18                 : 0
    faces with face-decomposition tet quality < 1e-12      : 0
    faces with concavity > 80  degrees                     : 0
    faces with area < 1e-13 m^2                            : 0
    faces with skewness > 4   (internal) or 8   (boundary) : 0
    faces with interpolation weights (0..1)  < 0.05        : 0
    faces with volume ratio of neighbour cells < 0.02      : 0
    faces with face twist < 0.02                           : 0
    faces with triangle twist < 0.02                       : 0
    faces on cells with determinant < 0.001                : 0
Finished meshing without any errors
Finished meshing in = 2865.2 s.
End

Finalising parallel run
