/*---------------------------------------------------------------------------*\
| =========                 |                                                 |
| \\      /  F ield         | OpenFOAM: The Open Source CFD Toolbox           |
|  \\    /   O peration     | Version:  2412                                  |
|   \\  /    A nd           | Website:  www.openfoam.com                      |
|    \\/     M anipulation  |                                                 |
\*---------------------------------------------------------------------------*/
Build  : _e5c6ccc3-20250814 OPENFOAM=2412 patch=250814 version=2412
Arch   : "LSB;label=32;scalar=64"
Exec   : rhoSimpleFoam -parallel
Date   : Jan 31 2026
Time   : 17:07:34
Host   : Albert
PID    : 1300120
I/O    : uncollated
Case   : /home/shafa/controlSurfaces/Blunt_Fin
nProcs : 6
Hosts  :
(
    (Albert 6)
)
Pstream initialized with:
    floatTransfer      : false
    maxCommsSize       : 0
    nProcsSimpleSum    : 0
    nonBlockingExchange: 0 (tuning: 0)
    exchange algorithm : 0
    commsType          : nonBlocking
    polling iterations : 0
trapFpe: Floating point exception trapping enabled (FOAM_SIGFPE).
fileModificationChecking : Monitoring run-time modified files using timeStampMaster (fileModificationSkew 5, maxFileModificationPolls 20)
allowSystemOperations : Allowing user-supplied system call operations

// * * * * * * * * * * * * * * * * * * * * * * * * * * * * * * * * * * * * * //
Create time

--> FOAM Warning : 
    From virtual void Foam::Time::readDict()
    in file db/Time/TimeIO.C at line 403
    Reading "system/controlDict" at line 17 to 112
    Disabled output compression for non-ascii format (inefficient/ineffective)
Create mesh for time = 0


SIMPLE: convergence criteria
    field p	 tolerance 1e-06
    field U	 tolerance 1e-06
    field h	 tolerance 1e-06
    field nuTilda	 tolerance 1e-06

Reading thermophysical properties

Selecting thermodynamics package 
{
    type            hePsiThermo;
    mixture         pureMixture;
    transport       sutherland;
    thermo          hConst;
    equationOfState perfectGas;
    specie          specie;
    energy          sensibleEnthalpy;
}

Reading field U

Reading/calculating face flux field phi

Creating turbulence model

Selecting turbulence model type RAS
Selecting RAS turbulence model SpalartAllmaras
Selecting patchDistMethod meshWave
ft2 term: inactive
RAS
{
    RASModel        SpalartAllmaras;
    turbulence      on;
    printCoeffs     on;
    sigmaNut        0.66666;
    kappa           0.41;
    Cb1             0.1355;
    Cb2             0.622;
    Cw2             0.3;
    Cw3             2;
    Cv1             7.1;
    Cs              0.3;
    ck              0.07000000000000001;
    ft2             false;
    Ct3             1.2;
    Ct4             0.5;
}

No MRF models present

No finite volume options present

Starting time loop

--> FOAM Warning : 
Unknown function type yPlus

Valid function types :

34
(
BilgerMixtureFraction
ObukhovLength
abort
areaWrite
caseInfo
coded
ensightWrite
foamReport
graphFunctionObject
multiRegion
parProfiling
patchProbes
probes
psiReactionThermoMoleFractions
psiSpecieReactionRates
removeRegisteredObject
rhoReactionThermoMoleFractions
rhoSpecieReactionRates
runTimeControl
setTimeStep
setTimeStepFaRegion
sets
solverInfo
surfaceCourantNumber
surfaces
syncObjects
systemCall
thermoCoupleProbes
timeActivatedFileUpdate
timeInfo
viewFactorHeatFlux
vtkWrite
writeDictionary
writeObjects
)



    From static Foam::autoPtr<Foam::functionObject> Foam::functionObject::New(const Foam::word&, const Foam::Time&, const Foam::dictionary&)
    in file db/functionObjects/functionObject/functionObject.C at line 129.
--> loading function object 'yPlus'

forceCoeffs forceCoeffs:
    rho: rho
    Not including porosity effects
    magUInf: 236.6
    lRef   : 0.1033
    Aref   : 0.00678
    rhoInf : 1.154
    Selecting all coefficients
    - Drag force: Cd
    - Drag force front: Cd(f)
    - Drag force rear: Cd(r)
    - Lift force: Cl
    - Lift force front: Cl(f)
    - Lift force rear: Cl(r)
    - Pitch moment: CmPitch
    - Roll moment: CmRoll
    - Yaw moment: CmYaw
    - Side force: Cs
    - Side force front: Cs(f)
    - Side force rear: Cs(r)


Time = 1

DILUPBiCGStab:  Solving for Ux, Initial residual = 0.9990110886148886, Final residual = 0.004107822846432032, No Iterations 2
DILUPBiCGStab:  Solving for Uy, Initial residual = 0.9999999999999994, Final residual = 0.001671745595140066, No Iterations 2
DILUPBiCGStab:  Solving for Uz, Initial residual = 1, Final residual = 0.005760818882755073, No Iterations 3
DILUPBiCGStab:  Solving for h, Initial residual = 0.9999805594735638, Final residual = 0.004147791494983267, No Iterations 2
GAMG:  Solving for p, Initial residual = 0.9999999995413863, Final residual = 0.004304590234221441, No Iterations 15
GAMG:  Solving for p, Initial residual = 0.1630684040035641, Final residual = 0.001155484846439514, No Iterations 4
GAMG:  Solving for p, Initial residual = 0.05449383530666811, Final residual = 0.0003413752716766648, No Iterations 5
time step continuity errors : sum local = 8.272734719546218e-05, global = -7.561258121179006e-07, cumulative = -7.561258121179006e-07
DILUPBiCGStab:  Solving for nuTilda, Initial residual = 0.9999998108485747, Final residual = 0.005657197117099804, No Iterations 1
ExecutionTime = 16.91 s  ClockTime = 17 s

--> FOAM Warning : 
    From virtual bool Foam::functionObjects::fieldSelection::checkSelection()
    in file functionObjects/fieldSelections/fieldSelection/fieldSelection.C at line 179
    Field nut not found
--> FOAM Warning : 
    From virtual bool Foam::functionObjects::fieldSelection::checkSelection()
    in file functionObjects/fieldSelections/fieldSelection/fieldSelection.C at line 179
    Field alphat not found
--> FOAM Warning : 
    From virtual bool Foam::functionObjects::fieldSelection::checkSelection()
    in file functionObjects/fieldSelections/fieldSelection/fieldSelection.C at line 179
    Field T not found
--> FOAM Warning : 
    From virtual bool Foam::functionObjects::solverFieldSelection::updateSelection()
    in file functionObjects/fieldSelections/solverFieldSelection/solverFieldSelection.C at line 82
    Valid solver fields are: 4(U h nuTilda p)forceCoeffs forceCoeffs write:
    Coefficient	Total	Pressure	Viscous	Internal
    Cd:	0.1524572222258543	0.1492203211153151	0.003236901110539299	0
    Cd(f):	0.07950946030873339	0.07789133354403019	0.001618126764703201	0
    Cd(r):	0.07294776191712096	0.07132898757128486	0.001618774345836098	0
    Cl:	4.714752347683858e-05	4.585552410162213e-05	1.291999375216441e-06	0
    Cl(f):	-0.002239857014178493	-0.002193087930714729	-4.676908346376397e-05	0
    Cl(r):	0.002287004537655331	0.002238943454816351	4.806108283898041e-05	0
    CmPitch:	-0.002263430775916912	-0.00221601569276554	-4.741508315137219e-05	0
    CmRoll:	0.003280849195806208	0.003281172986372656	-3.237905664486825e-07	0
    CmYaw:	0.0006959698307574259	-0.0002193683639883592	0.0009153381947457851	0
    Cs:	0.2339987815833441	0.2339906307341875	8.150849156676329e-06	0
    Cs(f):	0.1176953606224295	0.1167759470031054	0.0009194136193241232	0
    Cs(r):	0.1163034209609146	0.1172146837310821	-0.0009112627701674469	0

    writing force and moment coefficient files.

Time = 2

DILUPBiCGStab:  Solving for Ux, Initial residual = 0.001565435716296559, Final residual = 1.327194828796103e-05, No Iterations 1
DILUPBiCGStab:  Solving for Uy, Initial residual = 0.03029559181746129, Final residual = 0.0002328646646898783, No Iterations 1
DILUPBiCGStab:  Solving for Uz, Initial residual = 0.007690224911491056, Final residual = 6.169504671033107e-06, No Iterations 2
DILUPBiCGStab:  Solving for h, Initial residual = 0.001898211293505552, Final residual = 1.901289131016257e-06, No Iterations 2
GAMG:  Solving for p, Initial residual = 0.4395007651351735, Final residual = 0.003756481117846029, No Iterations 12
GAMG:  Solving for p, Initial residual = 0.008958375463532321, Final residual = 7.58043624763795e-05, No Iterations 4
GAMG:  Solving for p, Initial residual = 0.001974288806415682, Final residual = 1.145311941364244e-05, No Iterations 8
time step continuity errors : sum local = 3.910056515168575e-05, global = -1.105622578977707e-06, cumulative = -1.861748391095607e-06
DILUPBiCGStab:  Solving for nuTilda, Initial residual = 7.866060863923365e-05, Final residual = 6.892220569549919e-07, No Iterations 1
ExecutionTime = 29 s  ClockTime = 28 s

forceCoeffs forceCoeffs write:
    Coefficient	Total	Pressure	Viscous	Internal
    Cd:	0.2670385026199529	0.2638417246886416	0.003196777931311294	0
    Cd(f):	0.1370742899490842	0.1354764368060808	0.001597853143003447	0
    Cd(r):	0.1299642126708687	0.1283652878825609	0.001598924788307847	0
    Cl:	9.783481667038422e-05	9.66614331530235e-05	1.173383517360712e-06	0
    Cl(f):	-0.0039250957047072	-0.003878315118500186	-4.678058620701403e-05	0
    Cl(r):	0.004022930521377584	0.003974976551653209	4.795396972437475e-05	0
    CmPitch:	-0.003974013113042392	-0.003926645835076697	-4.736727796569439e-05	0
    CmRoll:	0.003555038639107773	0.003555574461759973	-5.358226521998301e-07	0
    CmYaw:	0.009483091242857972	0.008570941185625219	0.0009121500572327533	0
    Cs:	0.2559493405635822	0.2559584345673733	-9.094003791048382e-06	0
    Cs(f):	0.1374577615246491	0.1365501584693118	0.0009076030553372291	0
    Cs(r):	0.1184915790389331	0.1194082760980614	-0.0009166970591282774	0

    writing force and moment coefficient files.

Time = 3

DILUPBiCGStab:  Solving for Ux, Initial residual = 0.001136074947240206, Final residual = 1.039621124426139e-05, No Iterations 1
DILUPBiCGStab:  Solving for Uy, Initial residual = 0.03277994855153155, Final residual = 0.0002631371364036783, No Iterations 1
DILUPBiCGStab:  Solving for Uz, Initial residual = 0.00247390381699114, Final residual = 2.007704269701896e-06, No Iterations 2
DILUPBiCGStab:  Solving for h, Initial residual = 0.003795781881821276, Final residual = 5.145868168417189e-06, No Iterations 2
GAMG:  Solving for p, Initial residual = 0.06976298004140094, Final residual = 0.0005630198827748406, No Iterations 9
GAMG:  Solving for p, Initial residual = 0.00316967105554851, Final residual = 3.123964901966825e-05, No Iterations 4
GAMG:  Solving for p, Initial residual = 0.0006850274317810692, Final residual = 6.136467181734989e-06, No Iterations 7
time step continuity errors : sum local = 3.312575320692513e-05, global = -9.705079957580095e-07, cumulative = -2.832256386853617e-06
DILUPBiCGStab:  Solving for nuTilda, Initial residual = 5.453023115508605e-05, Final residual = 1.290609906483105e-07, No Iterations 2
ExecutionTime = 40.3 s  ClockTime = 40 s

forceCoeffs forceCoeffs write:
    Coefficient	Total	Pressure	Viscous	Internal
    Cd:	0.2570294229022044	0.2539047455962084	0.003124677305995947	0
    Cd(f):	0.1319728642266789	0.130411283296267	0.001561580930411848	0
    Cd(r):	0.1250565586755255	0.1234934622999414	0.001563096375584099	0
    Cl:	0.0001944582754750329	0.0001932892196463879	1.169055828645059e-06	0
    Cl(f):	-0.003641000793272303	-0.003593693575432638	-4.730721783966491e-05	0
    Cl(r):	0.003835459068747336	0.003786982795079026	4.847627366830997e-05	0
    CmPitch:	-0.00373822993100982	-0.003690338185255832	-4.789174575398744e-05	0
    CmRoll:	0.003458152775576713	0.003458910498162839	-7.577225861258073e-07	0
    CmYaw:	0.009307036570453356	0.008401890640965502	0.0009051459294878545	0
    Cs:	0.2516769811688524	0.2517005078892541	-2.352672040165781e-05	0
    Cs(f):	0.1351455271548796	0.1342521445855925	0.0008933825692870256	0
    Cs(r):	0.1165314540139729	0.1174483633036615	-0.0009169092896886835	0

    writing force and moment coefficient files.

Time = 4

DILUPBiCGStab:  Solving for Ux, Initial residual = 0.0006296954557317094, Final residual = 4.543347919292129e-07, No Iterations 2
DILUPBiCGStab:  Solving for Uy, Initial residual = 0.02647066651870629, Final residual = 0.0002088515882502733, No Iterations 1
DILUPBiCGStab:  Solving for Uz, Initial residual = 0.001211032703853547, Final residual = 9.688191054029771e-07, No Iterations 2
DILUPBiCGStab:  Solving for h, Initial residual = 0.006153070894803932, Final residual = 8.778739122639479e-06, No Iterations 2
GAMG:  Solving for p, Initial residual = 0.04411657208007318, Final residual = 0.0002931461335121695, No Iterations 11
GAMG:  Solving for p, Initial residual = 0.004199876815272534, Final residual = 3.222030426252831e-05, No Iterations 5
GAMG:  Solving for p, Initial residual = 0.0008698664148834366, Final residual = 5.684303624808457e-06, No Iterations 8
time step continuity errors : sum local = 4.625861075151208e-05, global = 4.939512254619526e-06, cumulative = 2.107255867765909e-06
DILUPBiCGStab:  Solving for nuTilda, Initial residual = 5.007385059326568e-05, Final residual = 6.016148165409845e-08, No Iterations 2
ExecutionTime = 52.39 s  ClockTime = 52 s

forceCoeffs forceCoeffs write:
    Coefficient	Total	Pressure	Viscous	Internal
    Cd:	0.1688042593722033	0.1657549205969653	0.003049338775237973	0
    Cd(f):	0.087458027566972	0.08593418866733632	0.001523838899635684	0
    Cd(r):	0.0813462318052313	0.07982073192962902	0.001525499875602289	0
    Cl:	0.0003022166678274302	0.0003015352725174935	6.813953099367604e-07	0
    Cl(f):	-0.00210577601929838	-0.002058022598063524	-4.775342123485602e-05	0
    Cl(r):	0.00240799268712581	0.002359557870581017	4.843481654479278e-05	0
    CmPitch:	-0.002256884353212095	-0.00220879023432227	-4.80941188898244e-05	0
    CmRoll:	0.003055897880870346	0.003056728368853649	-8.304879833027935e-07	0
    CmYaw:	0.003907977982568769	0.003010197467838611	0.0008977805147301585	0
    Cs:	0.2270077187880943	0.2270465492786511	-3.883049055689081e-05	0
    Cs(f):	0.1174118373766159	0.1165334721071642	0.0008783652694517131	0
    Cs(r):	0.1095958814114784	0.110513077171487	-0.0009171957600086039	0

    writing force and moment coefficient files.

Time = 5

DILUPBiCGStab:  Solving for Ux, Initial residual = 0.0003822430505830855, Final residual = 3.012006880671693e-07, No Iterations 2
DILUPBiCGStab:  Solving for Uy, Initial residual = 0.01370513542761468, Final residual = 9.898854279570608e-05, No Iterations 1
DILUPBiCGStab:  Solving for Uz, Initial residual = 0.0004825621267421794, Final residual = 3.52845633802229e-07, No Iterations 2
DILUPBiCGStab:  Solving for h, Initial residual = 0.006807093408965014, Final residual = 8.311475097229297e-06, No Iterations 2
GAMG:  Solving for p, Initial residual = 0.02468313807995273, Final residual = 0.00018000247342822, No Iterations 11
GAMG:  Solving for p, Initial residual = 0.004463722024550722, Final residual = 3.167516454393005e-05, No Iterations 5
GAMG:  Solving for p, Initial residual = 0.000902007039088432, Final residual = 4.057140826994286e-06, No Iterations 8
time step continuity errors : sum local = 3.758161932725023e-05, global = 3.368709824592551e-06, cumulative = 5.47596569235846e-06
DILUPBiCGStab:  Solving for nuTilda, Initial residual = 4.986717425304841e-05, Final residual = 6.321391048071129e-08, No Iterations 2
ExecutionTime = 64.52 s  ClockTime = 65 s

forceCoeffs forceCoeffs write:
    Coefficient	Total	Pressure	Viscous	Internal
    Cd:	0.05344353124651108	0.05046088923864308	0.002982642007868006	0
    Cd(f):	0.02930790963850449	0.02781749428415688	0.00149041535434761	0
    Cd(r):	0.0241356216080066	0.0226433949544862	0.001492226653520395	0
    Cl:	0.0003119998372008041	0.0003117736961022379	2.261410985662651e-07	0
    Cl(f):	-0.0002086374812350032	-0.0001606998721545095	-4.793760908049374e-05	0
    Cl(r):	0.0005206373184358074	0.0004724735682567474	4.816375017906e-05	0
    CmPitch:	-0.0003646373998354053	-0.0003165867202056284	-4.805067962977687e-05	0
    CmRoll:	0.002586144015248944	0.002587049664835337	-9.056495863926286e-07	0
    CmYaw:	-0.00336207028236787	-0.004252779604836909	0.0008907093224690388	0
    Cs:	0.1950319069383332	0.1950857921381937	-5.38851998604896e-05	0
    Cs(f):	0.09415388318679871	0.09329011646425991	0.0008637667225387941	0
    Cs(r):	0.1008780237515345	0.1017956756739337	-0.0009176519223992836	0

    writing force and moment coefficient files.

Time = 6

DILUPBiCGStab:  Solving for Ux, Initial residual = 0.000275884274753307, Final residual = 2.331282555245481e-07, No Iterations 2
DILUPBiCGStab:  Solving for Uy, Initial residual = 0.007665469731597789, Final residual = 8.713912705691084e-06, No Iterations 2
DILUPBiCGStab:  Solving for Uz, Initial residual = 0.0001341783835870456, Final residual = 1.372478171421542e-07, No Iterations 2
DILUPBiCGStab:  Solving for h, Initial residual = 0.003250458628643103, Final residual = 2.687897263466494e-05, No Iterations 1
GAMG:  Solving for p, Initial residual = 0.01327635861063887, Final residual = 0.0001016855542764002, No Iterations 11
GAMG:  Solving for p, Initial residual = 0.004523672944068536, Final residual = 4.319193341216807e-05, No Iterations 4
GAMG:  Solving for p, Initial residual = 0.0009033305730901133, Final residual = 7.183287267811645e-06, No Iterations 8
time step continuity errors : sum local = 5.424788141089732e-05, global = -9.385974656435076e-07, cumulative = 4.537368226714953e-06
DILUPBiCGStab:  Solving for nuTilda, Initial residual = 5.037857114930299e-05, Final residual = 6.295382103730973e-08, No Iterations 2
ExecutionTime = 76.48 s  ClockTime = 77 s

forceCoeffs forceCoeffs write:
    Coefficient	Total	Pressure	Viscous	Internal
    Cd:	-0.04323533550250359	-0.04616642991474063	0.002931094412237041	0
    Cd(f):	-0.01933781705102977	-0.0208027900896316	0.001464973038601832	0
    Cd(r):	-0.02389751845147382	-0.02536363982510902	0.001466121373635209	0
    Cl:	0.0001638996707874043	0.0001654240503138084	-1.524379526404061e-06	0
    Cl(f):	0.001215326974266931	0.001263150901593301	-4.782392732636951e-05	0
    Cl(r):	-0.001051427303479527	-0.001097726851279492	4.629954779996546e-05	0
    CmPitch:	0.001133377138873229	0.001180438876436397	-4.706173756316749e-05	0
    CmRoll:	0.002279850700222023	0.002280424867738711	-5.74167516688214e-07	0
    CmYaw:	-0.009599174385382223	-0.01048350857434723	0.0008843341889650114	0
    Cs:	0.1691657406111955	0.1692362868230504	-7.054621185491345e-05	0
    Cs(f):	0.07498369592021555	0.07413463483717798	0.0008490610830375546	0
    Cs(r):	0.09418204469097999	0.09510165198587246	-0.0009196072948924681	0

    writing force and moment coefficient files.

Time = 7

DILUPBiCGStab:  Solving for Ux, Initial residual = 0.0002992934996249128, Final residual = 2.330553414367263e-06, No Iterations 1
DILUPBiCGStab:  Solving for Uy, Initial residual = 0.04761946108015848, Final residual = 4.318141749903807e-05, No Iterations 2
DILUPBiCGStab:  Solving for Uz, Initial residual = 0.0002615838129200787, Final residual = 2.220410575958543e-07, No Iterations 2
DILUPBiCGStab:  Solving for h, Initial residual = 0.00144719015243412, Final residual = 1.292350579176592e-05, No Iterations 1
GAMG:  Solving for p, Initial residual = 0.01273880327748588, Final residual = 0.0001066773312183187, No Iterations 9
GAMG:  Solving for p, Initial residual = 0.005571681803256471, Final residual = 4.399564783000282e-05, No Iterations 5
GAMG:  Solving for p, Initial residual = 0.001162129951271013, Final residual = 8.793279154218333e-06, No Iterations 8
time step continuity errors : sum local = 3.37377566933966e-05, global = 2.865582785387137e-07, cumulative = 4.823926505253666e-06
DILUPBiCGStab:  Solving for nuTilda, Initial residual = 5.115955885032906e-05, Final residual = 5.501895153539727e-08, No Iterations 2
ExecutionTime = 88.17 s  ClockTime = 88 s

forceCoeffs forceCoeffs write:
    Coefficient	Total	Pressure	Viscous	Internal
    Cd:	-0.09246891184014056	-0.09536299128853891	0.002894079448398353	0
    Cd(f):	-0.04396935998607278	-0.04541619010099829	0.001446830114925507	0
    Cd(r):	-0.04849955185406778	-0.04994680118754062	0.001447249333472846	0
    Cl:	-0.0001485556734599213	-0.0001452240813075696	-3.331592152351643e-06	0
    Cl(f):	0.001724910427512014	0.001772383666578256	-4.747323906624168e-05	0
    Cl(r):	-0.001873466100971936	-0.001917607747885826	4.414164691389003e-05	0
    CmPitch:	0.001799188264241975	0.001844995707232041	-4.580744299006586e-05	0
    CmRoll:	0.0022650959339975	0.00226530554327117	-2.096092736698063e-07	0
    CmYaw:	-0.01310261747992411	-0.01398166377982452	0.0008790462999004094	0
    Cs:	0.1580735812315741	0.1581603848756704	-8.680364409623089e-05	0
    Cs(f):	0.06593417313586294	0.06509852865801065	0.0008356444778522939	0
    Cs(r):	0.09213940809571118	0.09306185621765971	-0.0009224481219485248	0

    writing force and moment coefficient files.

Time = 8

DILUPBiCGStab:  Solving for Ux, Initial residual = 0.0002878223712695619, Final residual = 1.807455874416118e-06, No Iterations 1
DILUPBiCGStab:  Solving for Uy, Initial residual = 0.02389714874678901, Final residual = 3.01226262731802e-05, No Iterations 2
DILUPBiCGStab:  Solving for Uz, Initial residual = 0.0003136889961022958, Final residual = 2.658241538553242e-07, No Iterations 2
DILUPBiCGStab:  Solving for h, Initial residual = 0.0008673433079678947, Final residual = 6.916864469698768e-07, No Iterations 2
GAMG:  Solving for p, Initial residual = 0.01691939276481952, Final residual = 0.0001005234840668424, No Iterations 10
GAMG:  Solving for p, Initial residual = 0.0767411372353508, Final residual = 0.0004307175071507936, No Iterations 7
GAMG:  Solving for p, Initial residual = 0.008377552419036286, Final residual = 7.952380486466351e-05, No Iterations 5
time step continuity errors : sum local = 2.47854367378754e-05, global = -5.541938237542434e-07, cumulative = 4.269732681499423e-06
DILUPBiCGStab:  Solving for nuTilda, Initial residual = 5.278369091268117e-05, Final residual = 5.55018862794981e-08, No Iterations 2
ExecutionTime = 99.93000000000001 s  ClockTime = 100 s

forceCoeffs forceCoeffs write:
    Coefficient	Total	Pressure	Viscous	Internal
    Cd:	-0.08854922378399421	-0.091420454009548	0.002871230225553781	0
    Cd(f):	-0.04177838417911328	-0.04321393264044279	0.00143554846132951	0
    Cd(r):	-0.04677083960488094	-0.04820652136910521	0.001435681764224271	0
    Cl:	-0.0005325119501489111	-0.0005280850347234317	-4.426915425479413e-06	0
    Cl(f):	0.001361580981717962	0.001408633004456787	-4.705202273882461e-05	0
    Cl(r):	-0.001894092931866873	-0.001936718039180218	4.262510731334519e-05	0
    CmPitch:	0.001627836956792418	0.001672675521818502	-4.48385650260849e-05	0
    CmRoll:	0.00249622771288383	0.00249629436433121	-6.66514473800993e-08	0
    CmYaw:	-0.01345821482114748	-0.01433317842432459	0.0008749636031771088	0
    Cs:	0.1627395470975316	0.1628412635291649	-0.0001017164316332712	0
    Cs(f):	0.06791155872761831	0.06708745334025784	0.0008241053873604732	0
    Cs(r):	0.09482798836991328	0.09575381018890702	-0.0009258218189937444	0

    writing force and moment coefficient files.

Time = 9

DILUPBiCGStab:  Solving for Ux, Initial residual = 0.0002171802784818009, Final residual = 1.405736396901479e-06, No Iterations 1
DILUPBiCGStab:  Solving for Uy, Initial residual = 0.01128559476530822, Final residual = 3.320050858580563e-05, No Iterations 2
DILUPBiCGStab:  Solving for Uz, Initial residual = 0.0002468182253783261, Final residual = 2.167391356395566e-07, No Iterations 2
DILUPBiCGStab:  Solving for h, Initial residual = 0.0006703234930526178, Final residual = 5.598181345394096e-07, No Iterations 2
GAMG:  Solving for p, Initial residual = 0.02268518337963024, Final residual = 0.0001799365150286016, No Iterations 10
GAMG:  Solving for p, Initial residual = 0.007278537744272693, Final residual = 5.418555154836531e-05, No Iterations 8
GAMG:  Solving for p, Initial residual = 0.001264933236098741, Final residual = 1.04172832110942e-05, No Iterations 5
time step continuity errors : sum local = 2.843618089565403e-05, global = -1.292278313566244e-06, cumulative = 2.977454367933179e-06
DILUPBiCGStab:  Solving for nuTilda, Initial residual = 5.636536187516307e-05, Final residual = 6.270188802187336e-08, No Iterations 2
ExecutionTime = 111.87 s  ClockTime = 112 s

forceCoeffs forceCoeffs write:
    Coefficient	Total	Pressure	Viscous	Internal
    Cd:	-0.04594548654965819	-0.04880282109780625	0.002857334548148059	0
    Cd(f):	-0.02015239524587426	-0.02158109285993609	0.001428697614061831	0
    Cd(r):	-0.02579309130378393	-0.02722172823787016	0.001428636934086229	0
    Cl:	-0.0008241892635957592	-0.0008188940335446825	-5.295230051076686e-06	0
    Cl(f):	0.000462120028549408	0.0005086744148801281	-4.65543863307201e-05	0
    Cl(r):	-0.001286309292145167	-0.00132756844842481	4.125915627964341e-05	0
    CmPitch:	0.0008742146603472875	0.0009181214316524692	-4.390677130518175e-05	0
    CmRoll:	0.002820348028954836	0.002820317688967035	3.03399878012475e-08	0
    CmYaw:	-0.0113285295851532	-0.01220043140072598	0.0008719018155727871	0
    Cs:	0.1779682158199859	0.1780819862966373	-0.0001137704766513783	0
    Cs(f):	0.07765557832483976	0.07684056174759266	0.0008150165772470979	0
    Cs(r):	0.1003126374951461	0.1012414245490446	-0.0009287870538984762	0

    writing force and moment coefficient files.

Time = 10

DILUPBiCGStab:  Solving for Ux, Initial residual = 0.0001507614213278933, Final residual = 9.785537608030929e-07, No Iterations 1
DILUPBiCGStab:  Solving for Uy, Initial residual = 0.004819761736779844, Final residual = 5.279051834433403e-06, No Iterations 2
DILUPBiCGStab:  Solving for Uz, Initial residual = 0.0001255152822231435, Final residual = 1.00150843764814e-06, No Iterations 1
DILUPBiCGStab:  Solving for h, Initial residual = 0.0005697355000642151, Final residual = 4.908709762992805e-07, No Iterations 2
GAMG:  Solving for p, Initial residual = 0.02919448746577839, Final residual = 0.0002700296690470003, No Iterations 10
GAMG:  Solving for p, Initial residual = 0.007757219253889526, Final residual = 5.109497644448104e-05, No Iterations 8
GAMG:  Solving for p, Initial residual = 0.001385109152557524, Final residual = 1.157710431497986e-05, No Iterations 5
time step continuity errors : sum local = 3.272303383001986e-05, global = -7.725088003381733e-07, cumulative = 2.204945567595006e-06
DILUPBiCGStab:  Solving for nuTilda, Initial residual = 6.09214681336633e-05, Final residual = 6.982858970235058e-08, No Iterations 2
ExecutionTime = 123.7 s  ClockTime = 123 s

forceCoeffs forceCoeffs write:
    Coefficient	Total	Pressure	Viscous	Internal
    Cd:	0.01118707523318498	0.008340842128584998	0.002846233104599986	0
    Cd(f):	0.008713752094132643	0.007290368432447025	0.001423383661685618	0
    Cd(r):	0.002473323139052342	0.001050473696137974	0.001422849442914368	0
    Cl:	-0.0009979182719709841	-0.0009914903641998507	-6.427907771133484e-06	0
    Cl(f):	-0.0005309501662859686	-0.0004849294483600518	-4.60207179259168e-05	0
    Cl(r):	-0.0004669681056850155	-0.0005065609158397988	3.959281015478332e-05	0
    CmPitch:	-3.199103030047656e-05	1.08157337398735e-05	-4.280676404035006e-05	0
    CmRoll:	0.00312021447754015	0.003119947368154525	2.671093856246081e-07	0
    CmYaw:	-0.008021736363832866	-0.008890983867160213	0.0008692475033273466	0
    Cs:	0.1956863054555893	0.1958091093874492	-0.0001228039318599579	0
    Cs(f):	0.08982141636396178	0.08901357082656441	0.0008078455373973677	0
    Cs(r):	0.1058648890916275	0.1067955385608848	-0.0009306494692573255	0

    writing force and moment coefficient files.

Time = 11

DILUPBiCGStab:  Solving for Ux, Initial residual = 0.0001914435416762652, Final residual = 1.022677110676439e-06, No Iterations 1
DILUPBiCGStab:  Solving for Uy, Initial residual = 0.004861955640783122, Final residual = 5.774211002805608e-06, No Iterations 2
DILUPBiCGStab:  Solving for Uz, Initial residual = 8.40473482706588e-05, Final residual = 7.788348768371781e-07, No Iterations 1
DILUPBiCGStab:  Solving for h, Initial residual = 0.0004970877634688177, Final residual = 4.161452992670728e-07, No Iterations 2
GAMG:  Solving for p, Initial residual = 0.03641233503462479, Final residual = 0.0003589859421980173, No Iterations 10
GAMG:  Solving for p, Initial residual = 0.02640757444228008, Final residual = 0.0001027143193733719, No Iterations 8
GAMG:  Solving for p, Initial residual = 0.004187353434188537, Final residual = 3.776566644915591e-05, No Iterations 4
time step continuity errors : sum local = 3.061044955494716e-05, global = -1.884600758052552e-07, cumulative = 2.016485491789751e-06
DILUPBiCGStab:  Solving for nuTilda, Initial residual = 6.758656795968682e-05, Final residual = 7.734525446498222e-08, No Iterations 2
ExecutionTime = 135.38 s  ClockTime = 136 s

forceCoeffs forceCoeffs write:
    Coefficient	Total	Pressure	Viscous	Internal
    Cd:	0.05993522976638081	0.05710303150450433	0.002832198261876478	0
    Cd(f):	0.03325676893683201	0.03184016496710246	0.001416603969729558	0
    Cd(r):	0.02667846082954879	0.02526286653740187	0.00141559429214692	0
    Cl:	-0.00100799844151614	-0.001000635449635997	-7.362991880142682e-06	0
    Cl(f):	-0.001216695695790593	-0.00117120618334663	-4.548951244396312e-05	0
    Cl(r):	0.0002086972542744536	0.0001705707337106331	3.812652056382044e-05	0
    CmPitch:	-0.0007126964750325235	-0.0006708884585286317	-4.180801650389178e-05	0
    CmRoll:	0.003289154053641615	0.003288649214850296	5.048387913188828e-07	0
    CmYaw:	-0.00487130839907586	-0.005737954083573777	0.0008666456844979164	0
    Cs:	0.2088833459743066	0.2090130796720387	-0.0001297336977322076	0
    Cs(f):	0.09957036458807741	0.0987685857524456	0.0008017788356318126	0
    Cs(r):	0.1093129813862291	0.1102444939195932	-0.0009315125333640203	0

    writing force and moment coefficient files.

Time = 12

DILUPBiCGStab:  Solving for Ux, Initial residual = 0.000274501662923496, Final residual = 1.109023165947344e-06, No Iterations 1
DILUPBiCGStab:  Solving for Uy, Initial residual = 0.007550733081397674, Final residual = 1.084874154446991e-05, No Iterations 2
DILUPBiCGStab:  Solving for Uz, Initial residual = 0.0001305398517004662, Final residual = 8.823904965908828e-08, No Iterations 2
DILUPBiCGStab:  Solving for h, Initial residual = 0.0004430442270520912, Final residual = 3.466002800983989e-07, No Iterations 2
GAMG:  Solving for p, Initial residual = 0.05426642455357579, Final residual = 0.0005166414874393844, No Iterations 9
GAMG:  Solving for p, Initial residual = 0.004473685994745309, Final residual = 3.995041255347615e-05, No Iterations 7
GAMG:  Solving for p, Initial residual = 0.0009152822861287229, Final residual = 8.631916661854038e-06, No Iterations 5
time step continuity errors : sum local = 2.056883455794179e-05, global = 2.891777041816385e-07, cumulative = 2.305663195971389e-06
DILUPBiCGStab:  Solving for nuTilda, Initial residual = 7.599982865279999e-05, Final residual = 8.622475472665398e-08, No Iterations 2
ExecutionTime = 146.94 s  ClockTime = 147 s

forceCoeffs forceCoeffs write:
    Coefficient	Total	Pressure	Viscous	Internal
    Cd:	0.0856088058662525	0.0827963429128732	0.002812462953379295	0
    Cd(f):	0.04610582441936893	0.044699293504728	0.001406530914640931	0
    Cd(r):	0.03950298144688356	0.0380970494081452	0.001405932038738364	0
    Cl:	-0.0009247566758321538	-0.0009178021524559196	-6.954523376234135e-06	0
    Cl(f):	-0.001435223018251261	-0.001390156138037285	-4.506688021397539e-05	0
    Cl(r):	0.000510466342419107	0.0004723539855813657	3.811235683774126e-05	0
    CmPitch:	-0.0009728446803351839	-0.0009312550618093255	-4.158961852585832e-05	0
    CmRoll:	0.003301421486242685	0.003301122048291401	2.99437951283869e-07	0
    CmYaw:	-0.002907580638300317	-0.003771519930617793	0.0008639392923174757	0
    Cs:	0.2140308574031929	0.2141677794737369	-0.0001369220705439937	0
    Cs(f):	0.1041078480632961	0.1033123698062506	0.0007954782570454788	0
    Cs(r):	0.1099230093398968	0.1108554096674862	-0.0009324003275894725	0

    writing force and moment coefficient files.

Time = 13

DILUPBiCGStab:  Solving for Ux, Initial residual = 0.0002855143489560995, Final residual = 1.237401469283648e-06, No Iterations 1
DILUPBiCGStab:  Solving for Uy, Initial residual = 0.007959662223127275, Final residual = 1.218016246855795e-05, No Iterations 2
DILUPBiCGStab:  Solving for Uz, Initial residual = 0.0001416677905321289, Final residual = 9.152460912185845e-08, No Iterations 2
DILUPBiCGStab:  Solving for h, Initial residual = 0.0004069863473573401, Final residual = 3.663133926191219e-06, No Iterations 1
GAMG:  Solving for p, Initial residual = 0.05411314807490304, Final residual = 0.0004981111504292, No Iterations 8
GAMG:  Solving for p, Initial residual = 0.002012636548896445, Final residual = 1.021738804179541e-05, No Iterations 8
GAMG:  Solving for p, Initial residual = 0.0003594765813356471, Final residual = 3.504574979023527e-06, No Iterations 5
time step continuity errors : sum local = 1.716346949304998e-05, global = 2.231329960350363e-07, cumulative = 2.528796192006426e-06
DILUPBiCGStab:  Solving for nuTilda, Initial residual = 8.575061987817846e-05, Final residual = 9.714698558898109e-08, No Iterations 2
ExecutionTime = 158.43 s  ClockTime = 158 s

forceCoeffs forceCoeffs write:
    Coefficient	Total	Pressure	Viscous	Internal
    Cd:	0.0852703778621684	0.08248464037127358	0.002785737490894815	0
    Cd(f):	0.04583853408595572	0.0444458461926989	0.001392687893256826	0
    Cd(r):	0.03943184377621267	0.03803879417857468	0.001393049597637988	0
    Cl:	-0.0008414821988788797	-0.0008356817430171105	-5.800455861769156e-06	0
    Cl(f):	-0.00123531430722805	-0.001190481787376623	-4.483251985142648e-05	0
    Cl(r):	0.0003938321083491703	0.000354800044359513	3.903206398965732e-05	0
    CmPitch:	-0.0008145732077886102	-0.0007726409158680682	-4.19322919205419e-05	0
    CmRoll:	0.003203345154871522	0.003203526007062103	-1.80852190580915e-07	0
    CmYaw:	-0.002482537280715392	-0.003343550360224976	0.0008610130795095848	0
    Cs:	0.211300989362986	0.2114469730887657	-0.0001459837257796945	0
    Cs(f):	0.1031679574007776	0.1023799361841579	0.0007880212166197375	0
    Cs(r):	0.1081330319622084	0.1090670369046078	-0.000934004942399432	0

    writing force and moment coefficient files.

Time = 14

DILUPBiCGStab:  Solving for Ux, Initial residual = 0.0002266021485015214, Final residual = 1.272525844045611e-06, No Iterations 1
DILUPBiCGStab:  Solving for Uy, Initial residual = 0.005494532029009268, Final residual = 6.635766051817651e-06, No Iterations 2
DILUPBiCGStab:  Solving for Uz, Initial residual = 0.000109865603693341, Final residual = 8.245688770162117e-08, No Iterations 2
DILUPBiCGStab:  Solving for h, Initial residual = 0.0003868567647477214, Final residual = 3.106566172369237e-06, No Iterations 1
GAMG:  Solving for p, Initial residual = 0.03603422484669833, Final residual = 0.0002242874060319067, No Iterations 10
GAMG:  Solving for p, Initial residual = 0.001895068163249021, Final residual = 1.759642997790812e-05, No Iterations 7
GAMG:  Solving for p, Initial residual = 0.0003637414745933316, Final residual = 3.384289561866258e-06, No Iterations 6
time step continuity errors : sum local = 2.036529549400208e-05, global = 2.904574453007634e-07, cumulative = 2.819253637307189e-06
DILUPBiCGStab:  Solving for nuTilda, Initial residual = 9.858364492885216e-05, Final residual = 9.828193507875107e-07, No Iterations 1
ExecutionTime = 170.32 s  ClockTime = 171 s

forceCoeffs forceCoeffs write:
    Coefficient	Total	Pressure	Viscous	Internal
    Cd:	0.06601143149722197	0.06325832188092841	0.002753109616293567	0
    Cd(f):	0.0360781114433246	0.03470225722360453	0.001375854219720065	0
    Cd(r):	0.02993332005389737	0.02855606465732387	0.001377255396573502	0
    Cl:	-0.0008416355001320226	-0.000836982837284648	-4.652662847374632e-06	0
    Cl(f):	-0.0007979712127708732	-0.0007531521453650208	-4.48190674058524e-05	0
    Cl(r):	-4.366428736114941e-05	-8.383069191962719e-05	4.016640455847778e-05	0
    CmPitch:	-0.0003771534627048619	-0.0003346607267226968	-4.249273598216509e-05	0
    CmRoll:	0.003072395694713612	0.003073096283140331	-7.005884267184131e-07	0
    CmYaw:	-0.003335599031802212	-0.004193452453054821	0.0008578534212526083	0
    Cs:	0.2036824984218616	0.2038400030909649	-0.0001575046691033285	0
    Cs(f):	0.09850565017912859	0.09772654909242764	0.0007791010867009441	0
    Cs(r):	0.105176848242733	0.1061134539985373	-0.0009366057558042725	0

    writing force and moment coefficient files.

Time = 15

DILUPBiCGStab:  Solving for Ux, Initial residual = 0.0001494284299520932, Final residual = 1.169962718255952e-06, No Iterations 1
DILUPBiCGStab:  Solving for Uy, Initial residual = 0.002830275548994164, Final residual = 2.723442169513342e-06, No Iterations 2
DILUPBiCGStab:  Solving for Uz, Initial residual = 6.487987116116109e-05, Final residual = 6.193790393545992e-07, No Iterations 1
DILUPBiCGStab:  Solving for h, Initial residual = 0.0003820956109455191, Final residual = 3.03859970293617e-06, No Iterations 1
GAMG:  Solving for p, Initial residual = 0.0225787629148389, Final residual = 0.0001891439096957974, No Iterations 9
GAMG:  Solving for p, Initial residual = 0.002098902662048113, Final residual = 1.344452846427908e-05, No Iterations 8
GAMG:  Solving for p, Initial residual = 0.0004136260533406131, Final residual = 3.273595845679269e-06, No Iterations 5
time step continuity errors : sum local = 1.813865640727965e-05, global = 8.173940099464292e-07, cumulative = 3.636647647253618e-06
DILUPBiCGStab:  Solving for nuTilda, Initial residual = 0.0001171146007490465, Final residual = 1.155210541170864e-06, No Iterations 1
ExecutionTime = 181.93 s  ClockTime = 182 s

forceCoeffs forceCoeffs write:
    Coefficient	Total	Pressure	Viscous	Internal
    Cd:	0.03945790421948554	0.03673967127766676	0.002718232941818787	0
    Cd(f):	0.02270407063479411	0.02134576606502253	0.001358304569771573	0
    Cd(r):	0.01675383358469144	0.01539390521264422	0.001359928372047214	0
    Cl:	-0.000944585189285797	-0.0009397230052730285	-4.862184012768472e-06	0
    Cl(f):	-0.0003516161634413805	-0.0003066280395744079	-4.498812386697258e-05	0
    Cl(r):	-0.0005929690258444164	-0.0006330949656986205	4.01259398542041e-05	0
    CmPitch:	0.000120676431201518	0.0001632334630621063	-4.255703186058834e-05	0
    CmRoll:	0.002975118525051335	0.002975930426189155	-8.119011378203825e-07	0
    CmYaw:	-0.004854282888928699	-0.005708914822176599	0.0008546319332478997	0
    Cs:	0.1951964130867536	0.1953678456872795	-0.0001714326005258224	0
    Cs(f):	0.09274392365444813	0.09197500802146313	0.0007689156329849884	0
    Cs(r):	0.1024524894323055	0.1033928376658163	-0.0009403482335108109	0

    writing force and moment coefficient files.

Time = 16

DILUPBiCGStab:  Solving for Ux, Initial residual = 0.0001140185199335751, Final residual = 1.055433146047333e-06, No Iterations 1
DILUPBiCGStab:  Solving for Uy, Initial residual = 0.002162666144669762, Final residual = 5.875027408853436e-06, No Iterations 2
DILUPBiCGStab:  Solving for Uz, Initial residual = 4.679753274597284e-05, Final residual = 3.958245879290415e-07, No Iterations 1
DILUPBiCGStab:  Solving for h, Initial residual = 0.0003866165062234601, Final residual = 3.202660329499874e-06, No Iterations 1
GAMG:  Solving for p, Initial residual = 0.01531705305846986, Final residual = 7.500676319863482e-05, No Iterations 11
GAMG:  Solving for p, Initial residual = 0.002387240246655094, Final residual = 1.984555107094681e-05, No Iterations 7
GAMG:  Solving for p, Initial residual = 0.0004966428487988744, Final residual = 4.620426606435058e-06, No Iterations 4
time step continuity errors : sum local = 1.805740835009466e-05, global = -4.481567879889643e-07, cumulative = 3.188490859264654e-06
DILUPBiCGStab:  Solving for nuTilda, Initial residual = 0.0001453900571802846, Final residual = 1.43466095551611e-06, No Iterations 1
ExecutionTime = 193.48 s  ClockTime = 193 s

forceCoeffs forceCoeffs write:
    Coefficient	Total	Pressure	Viscous	Internal
    Cd:	0.01661535972483107	0.01393225935742761	0.00268310036740346	0
    Cd(f):	0.01126698682889023	0.009926103636301933	0.001340883192588294	0
    Cd(r):	0.005348372895940839	0.004006155721125673	0.001342217174815166	0
    Cl:	-0.001158315341718662	-0.001152367600659601	-5.947741059060669e-06	0
    Cl(f):	-8.821876828610242e-05	-4.304239518433369e-05	-4.517637310176873e-05	0
    Cl(r):	-0.00107009657343256	-0.001109325205475268	3.922863204270807e-05	0
    CmPitch:	0.0004909389025732286	0.000533141405145467	-4.22025025722384e-05	0
    CmRoll:	0.002959306966474693	0.00295997395758813	-6.669911134363988e-07	0
    CmYaw:	-0.006365805204377213	-0.007217096819065598	0.0008512916146883841	0
    Cs:	0.1890991040619617	0.189285472340992	-0.0001863682790303421	0
    Cs(f):	0.08818374682660363	0.08742563935143041	0.000758107475173213	0
    Cs(r):	0.100915357235358	0.1018598329895616	-0.0009444757542035551	0

    writing force and moment coefficient files.

Time = 17

DILUPBiCGStab:  Solving for Ux, Initial residual = 0.0001575215269493209, Final residual = 9.327471654857474e-07, No Iterations 1
DILUPBiCGStab:  Solving for Uy, Initial residual = 0.002143775801540556, Final residual = 5.73025135102227e-06, No Iterations 2
DILUPBiCGStab:  Solving for Uz, Initial residual = 5.364051946682355e-05, Final residual = 5.099208418102184e-07, No Iterations 1
DILUPBiCGStab:  Solving for h, Initial residual = 0.0003948130006208301, Final residual = 3.406461145898167e-06, No Iterations 1
GAMG:  Solving for p, Initial residual = 0.01314768082716487, Final residual = 8.044263458630917e-05, No Iterations 9
GAMG:  Solving for p, Initial residual = 0.003419550491442505, Final residual = 2.691832333021253e-05, No Iterations 7
GAMG:  Solving for p, Initial residual = 0.000715328819126292, Final residual = 5.900960652688018e-06, No Iterations 5
time step continuity errors : sum local = 1.163924683028634e-05, global = -3.051202707954338e-07, cumulative = 2.88337058846922e-06
DILUPBiCGStab:  Solving for nuTilda, Initial residual = 0.0001908188622698548, Final residual = 1.87950862174284e-06, No Iterations 1
ExecutionTime = 204.85 s  ClockTime = 205 s

forceCoeffs forceCoeffs write:
    Coefficient	Total	Pressure	Viscous	Internal
    Cd:	0.004376023587636778	0.001725401462374125	0.002650622125262654	0
    Cd(f):	0.005214962445706891	0.003890156872204242	0.001324805573502649	0
    Cd(r):	-0.0008389388580701126	-0.002164755409830117	0.001325816551760004	0
    Cl:	-0.001419730968846811	-0.001412609622130342	-7.121346716468971e-06	0
    Cl(f):	-8.392006378404496e-05	-3.866987860483815e-05	-4.52501851792068e-05	0
    Cl(r):	-0.001335810905062766	-0.001373939743525504	3.812883846273783e-05	0
    CmPitch:	0.0006259454206393604	0.0006676349324603328	-4.168951182097232e-05	0
    CmRoll:	0.003026950651888502	0.003027456141017179	-5.05489128677465e-07	0
    CmYaw:	-0.00736030738267703	-0.008208353722157608	0.0008480463394805778	0
    Cs:	0.1869867762487148	0.18718785856312	-0.0002010823144051065	0
    Cs(f):	0.08613308074168038	0.08538557555940236	0.0007475051822780246	0
    Cs(r):	0.1008536955070345	0.1018022830037176	-0.0009485874966831311	0

    writing force and moment coefficient files.

Time = 18

DILUPBiCGStab:  Solving for Ux, Initial residual = 0.0001881011019778165, Final residual = 6.988763182242414e-07, No Iterations 1
DILUPBiCGStab:  Solving for Uy, Initial residual = 0.001725753236476623, Final residual = 3.88053541701809e-06, No Iterations 2
DILUPBiCGStab:  Solving for Uz, Initial residual = 5.381427668558435e-05, Final residual = 5.27743023694073e-07, No Iterations 1
DILUPBiCGStab:  Solving for h, Initial residual = 0.0004096363742840304, Final residual = 3.579286236892987e-06, No Iterations 1
GAMG:  Solving for p, Initial residual = 0.01621906158163537, Final residual = 0.0001365006924117352, No Iterations 8
GAMG:  Solving for p, Initial residual = 0.009927152094519116, Final residual = 4.966769207927905e-05, No Iterations 8
GAMG:  Solving for p, Initial residual = 0.002077965582645526, Final residual = 1.838303847931873e-05, No Iterations 5
time step continuity errors : sum local = 1.116963173435283e-05, global = -2.20021703327175e-07, cumulative = 2.663348885142045e-06
DILUPBiCGStab:  Solving for nuTilda, Initial residual = 0.0002700763523639584, Final residual = 2.625620884885267e-06, No Iterations 1
ExecutionTime = 216.25 s  ClockTime = 216 s

forceCoeffs forceCoeffs write:
    Coefficient	Total	Pressure	Viscous	Internal
    Cd:	0.004150297229992751	0.001527916874908262	0.002622380355084489	0
    Cd(f):	0.005212480409645844	0.003901699498565872	0.001310780911079972	0
    Cd(r):	-0.001062183179653093	-0.00237378262365761	0.001311599444004517	0
    Cl:	-0.001629620565416422	-0.001621572607870771	-8.047957545650524e-06	0
    Cl(f):	-0.0002695666374328987	-0.0002244589704576292	-4.510766697526958e-05	0
    Cl(r):	-0.001360053927983523	-0.001397113637413142	3.705970942961907e-05	0
    CmPitch:	0.0005452436452753123	0.0005863273334777566	-4.108368820244433e-05	0
    CmRoll:	0.003137331794649468	0.003137741061111741	-4.092664622726426e-07	0
    CmYaw:	-0.007627057846243509	-0.008472073129878901	0.0008450152836353923	0
    Cs:	0.1885998788087911	0.1888144020906029	-0.0002145232818117093	0
    Cs(f):	0.08667288155815207	0.08593512791542253	0.0007377536427295376	0
    Cs(r):	0.1019269972506391	0.1028792741751803	-0.0009522769245412469	0

    writing force and moment coefficient files.

Time = 19

DILUPBiCGStab:  Solving for Ux, Initial residual = 0.0001741085529139296, Final residual = 5.73480934831385e-07, No Iterations 1
DILUPBiCGStab:  Solving for Uy, Initial residual = 0.001159628153256639, Final residual = 1.740071468189336e-06, No Iterations 2
DILUPBiCGStab:  Solving for Uz, Initial residual = 4.135876858391803e-05, Final residual = 3.817664333175027e-07, No Iterations 1
DILUPBiCGStab:  Solving for h, Initial residual = 0.0004469605460007205, Final residual = 3.766689883530264e-06, No Iterations 1
GAMG:  Solving for p, Initial residual = 0.01947846499194392, Final residual = 0.0001905447988959688, No Iterations 8
GAMG:  Solving for p, Initial residual = 0.02183008866561556, Final residual = 0.0001245977013713913, No Iterations 8
GAMG:  Solving for p, Initial residual = 0.005186072597405482, Final residual = 4.320412447666943e-05, No Iterations 7
time step continuity errors : sum local = 1.102964395279367e-05, global = 9.04140098834062e-09, cumulative = 2.672390286130386e-06
DILUPBiCGStab:  Solving for nuTilda, Initial residual = 0.0004359194633656718, Final residual = 4.129318860923015e-06, No Iterations 1
ExecutionTime = 228.01 s  ClockTime = 227 s

forceCoeffs forceCoeffs write:
    Coefficient	Total	Pressure	Viscous	Internal
    Cd:	0.012869071232044	0.0102705131790569	0.002598558052987107	0
    Cd(f):	0.009670302181960095	0.008371423378743571	0.001298878803216524	0
    Cd(r):	0.00319876905008391	0.001899089800313327	0.001299679249770583	0
    Cl:	-0.001717323058544369	-0.001708702273789914	-8.620784754454921e-06	0
    Cl(f):	-0.0005310082273109749	-0.0004862950486513384	-4.471317865963647e-05	0
    Cl(r):	-0.001186314831233395	-0.001222407225138576	3.609239390518155e-05	0
    CmPitch:	0.0003276533019612098	0.0003680560882436189	-4.040278628240901e-05	0
    CmRoll:	0.003235766565938093	0.003236166789215122	-4.002232770297068e-07	0
    CmYaw:	-0.0072740090073497	-0.008116235978914104	0.000842226971564403	0
    Cs:	0.1924787980396448	0.1927049863829624	-0.0002261883433175909	0
    Cs(f):	0.08896539001247268	0.08823625721256707	0.0007291327999056075	0
    Cs(r):	0.1035134080271721	0.1044687291703953	-0.0009553211432231985	0

    writing force and moment coefficient files.

Time = 20

DILUPBiCGStab:  Solving for Ux, Initial residual = 0.0001325405557837852, Final residual = 4.682579950627043e-07, No Iterations 1
DILUPBiCGStab:  Solving for Uy, Initial residual = 0.0008905463159693498, Final residual = 6.846034913113041e-07, No Iterations 2
DILUPBiCGStab:  Solving for Uz, Initial residual = 2.969321993781722e-05, Final residual = 2.385388163027483e-07, No Iterations 1
DILUPBiCGStab:  Solving for h, Initial residual = 0.0005187576226213186, Final residual = 4.080682725060142e-06, No Iterations 1
GAMG:  Solving for p, Initial residual = 0.02118785080752413, Final residual = 0.0001085660329070519, No Iterations 11
GAMG:  Solving for p, Initial residual = 0.006787639639142483, Final residual = 5.490683702328202e-05, No Iterations 7
GAMG:  Solving for p, Initial residual = 0.001460652212616993, Final residual = 1.318624242130672e-05, No Iterations 5
time step continuity errors : sum local = 1.15390016629416e-05, global = -4.171290773880794e-08, cumulative = 2.630677378391578e-06
DILUPBiCGStab:  Solving for nuTilda, Initial residual = 0.001012339222763801, Final residual = 9.23353754425778e-06, No Iterations 1
ExecutionTime = 239.77 s  ClockTime = 240 s

forceCoeffs forceCoeffs write:
    Coefficient	Total	Pressure	Viscous	Internal
    Cd:	0.02513096951521253	0.02255304657858415	0.002577922936628375	0
    Cd(f):	0.01585921040570883	0.0145707653365902	0.001288445069118628	0
    Cd(r):	0.0092717591095037	0.007982281241993953	0.001289477867509747	0
    Cl:	-0.001683771272933486	-0.001675053599939987	-8.71767299349887e-06	0
    Cl(f):	-0.0007474863688482296	-0.0007033684560597294	-4.411791278850023e-05	0
    Cl(r):	-0.0009362849040852566	-0.000971685143880258	3.540023979500137e-05	0
    CmPitch:	9.439926761851351e-05	0.0001341583439102643	-3.97590762917508e-05	0
    CmRoll:	0.003293725648102564	0.003294242047298123	-5.16399195559358e-07	0
    CmYaw:	-0.006590080918205211	-0.007429693251920886	0.0008396123337156759	0
    Cs:	0.1967149310122359	0.1969511472083232	-0.0002362161960872944	0
    Cs(f):	0.09176738458791274	0.0910458803522407	0.0007215042356720286	0
    Cs(r):	0.1049475464243232	0.1059052668560825	-0.0009577204317593231	0

    writing force and moment coefficient files.

Time = 21

DILUPBiCGStab:  Solving for Ux, Initial residual = 8.881253574879238e-05, Final residual = 3.672097121248445e-07, No Iterations 1
DILUPBiCGStab:  Solving for Uy, Initial residual = 0.0009834916156259853, Final residual = 9.574717371320086e-06, No Iterations 1
DILUPBiCGStab:  Solving for Uz, Initial residual = 2.973716642356632e-05, Final residual = 2.245303213445842e-07, No Iterations 1
DILUPBiCGStab:  Solving for h, Initial residual = 0.0006054615084184175, Final residual = 4.522925502965815e-06, No Iterations 1
GAMG:  Solving for p, Initial residual = 0.02101002823964584, Final residual = 0.0001117348413116661, No Iterations 9
GAMG:  Solving for p, Initial residual = 0.00239768169922954, Final residual = 1.376877390219393e-05, No Iterations 7
GAMG:  Solving for p, Initial residual = 0.0004792033674710041, Final residual = 3.75687555297713e-06, No Iterations 5
time step continuity errors : sum local = 7.686345913842411e-06, global = 5.485730444085766e-07, cumulative = 3.179250422800154e-06
DILUPBiCGStab:  Solving for nuTilda, Initial residual = 0.003614348846313046, Final residual = 3.175187806405827e-05, No Iterations 1
ExecutionTime = 251.06 s  ClockTime = 251 s

forceCoeffs forceCoeffs write:
    Coefficient	Total	Pressure	Viscous	Internal
    Cd:	0.03572807061621792	0.03316923108500804	0.002558839531209891	0
    Cd(f):	0.02115864262262094	0.01987998837542666	0.001278654247194279	0
    Cd(r):	0.01456942799359699	0.01328924270958138	0.001280185284015611	0
    Cl:	-0.001552314576701403	-0.00154398806635473	-8.326510346673194e-06	0
    Cl(f):	-0.0008392882093169445	-0.00079583026986273	-4.345793945421445e-05	0
    Cl(r):	-0.0007130263673844586	-0.0007481577964919999	3.513142910754126e-05	0
    CmPitch:	-6.31309209662429e-05	-2.383623668536504e-05	-3.929468428087786e-05	0
    CmRoll:	0.003294607314511976	0.003295372832922642	-7.655184106659843e-07	0
    CmYaw:	-0.005904175164582587	-0.00674128917638389	0.0008371140118013032	0
    Cs:	0.199783671689791	0.2000289151370659	-0.0002452434472748891	0
    Cs(f):	0.09398766068031293	0.09327316839214907	0.0007144922881638587	0
    Cs(r):	0.1057960110094781	0.1067557467449168	-0.0009597357354387477	0

    writing force and moment coefficient files.

Time = 22

DILUPBiCGStab:  Solving for Ux, Initial residual = 7.601386261361626e-05, Final residual = 4.92230805167166e-07, No Iterations 1
DILUPBiCGStab:  Solving for Uy, Initial residual = 0.001103889536205419, Final residual = 1.41178656851571e-08, No Iterations 3
DILUPBiCGStab:  Solving for Uz, Initial residual = 3.349594258939163e-05, Final residual = 2.749909737553646e-07, No Iterations 1
DILUPBiCGStab:  Solving for h, Initial residual = 0.000711848353923899, Final residual = 5.314608798452338e-06, No Iterations 1
GAMG:  Solving for p, Initial residual = 0.01918235835915288, Final residual = 0.0001666250968972601, No Iterations 8
GAMG:  Solving for p, Initial residual = 0.001399522718580827, Final residual = 8.475751453959358e-06, No Iterations 7
GAMG:  Solving for p, Initial residual = 0.0002669495351157451, Final residual = 2.618002452776722e-06, No Iterations 5
time step continuity errors : sum local = 8.455146126397081e-06, global = 5.937160630813547e-07, cumulative = 3.772966485881509e-06
DILUPBiCGStab:  Solving for nuTilda, Initial residual = 0.000709069077997025, Final residual = 6.019147210706889e-06, No Iterations 1
ExecutionTime = 262.38 s  ClockTime = 262 s

forceCoeffs forceCoeffs write:
    Coefficient	Total	Pressure	Viscous	Internal
    Cd:	0.0414336671105731	0.03889380958484971	0.002539857525723387	0
    Cd(f):	0.0239630223656703	0.02269417478299502	0.001268847582675283	0
    Cd(r):	0.0174706447449028	0.01619963480185469	0.001271009943048103	0
    Cl:	-0.001378328012000132	-0.001370590464048008	-7.737547952123382e-06	0
    Cl(f):	-0.0008060741408328525	-0.0007631878084312013	-4.288633240165112e-05	0
    Cl(r):	-0.0005722538711672792	-0.0006074026556168069	3.514878444952774e-05	0
    CmPitch:	-0.0001169101348327866	-7.789257640719719e-05	-3.901755842558943e-05	0
    CmRoll:	0.003246188810383755	0.003247269990570165	-1.081180186409959e-06	0
    CmYaw:	-0.005456178494850593	-0.006290872053650109	0.0008346935587995166	0
    Cs:	0.2009421386515522	0.2011963444515034	-0.0002542057999511567	0
    Cs(f):	0.09501489083092553	0.09430730017210159	0.0007075906588239382	0
    Cs(r):	0.1059272478206267	0.1068890442794018	-0.000961796458775095	0

    writing force and moment coefficient files.

Time = 23

DILUPBiCGStab:  Solving for Ux, Initial residual = 0.0001138379640842691, Final residual = 5.619658713551702e-07, No Iterations 1
DILUPBiCGStab:  Solving for Uy, Initial residual = 0.001011133692886477, Final residual = 5.608453272246519e-06, No Iterations 2
DILUPBiCGStab:  Solving for Uz, Initial residual = 3.289665552770842e-05, Final residual = 2.988744065698889e-07, No Iterations 1
DILUPBiCGStab:  Solving for h, Initial residual = 0.0008600556581682772, Final residual = 6.742971474483373e-06, No Iterations 1
GAMG:  Solving for p, Initial residual = 0.01644984784504581, Final residual = 0.0001123786200034765, No Iterations 9
GAMG:  Solving for p, Initial residual = 0.001052585755009931, Final residual = 5.965676624618843e-06, No Iterations 8
GAMG:  Solving for p, Initial residual = 0.0001974498413618881, Final residual = 6.976962549659955e-07, No Iterations 8
time step continuity errors : sum local = 2.724347271546567e-06, global = 3.229196240090641e-10, cumulative = 3.773289405505519e-06
DILUPBiCGStab:  Solving for nuTilda, Initial residual = 0.0004014774783300238, Final residual = 3.357214115504027e-06, No Iterations 1
ExecutionTime = 274.53 s  ClockTime = 275 s

forceCoeffs forceCoeffs write:
    Coefficient	Total	Pressure	Viscous	Internal
    Cd:	0.04157653561032472	0.03905681322021564	0.002519722390109077	0
    Cd(f):	0.02397604065103731	0.02271750217481316	0.001258538476224152	0
    Cd(r):	0.0176004949592874	0.01633931104540248	0.001261183913884925	0
    Cl:	-0.001252667699004861	-0.001245252556694651	-7.415142310210037e-06	0
    Cl(f):	-0.0007188566592166695	-0.0006763430130626461	-4.251364615402344e-05	0
    Cl(r):	-0.0005338110397881913	-0.0005689095436320047	3.50985038438134e-05	0
    CmPitch:	-9.252280971423905e-05	-5.371673471532063e-05	-3.880607499891842e-05	0
    CmRoll:	0.003187772845874954	0.00318909556470534	-1.322718830386303e-06	0
    CmYaw:	-0.005343359264477447	-0.006175638716763297	0.0008322794522858499	0
    Cs:	0.2003246736184525	0.2005884698199734	-0.0002637962015209303	0
    Cs(f):	0.09481897754474877	0.09411859619322339	0.0007003813515253848	0
    Cs(r):	0.1055056960737037	0.10646987362675	-0.0009641775530463151	0

    writing force and moment coefficient files.

Time = 24

DILUPBiCGStab:  Solving for Ux, Initial residual = 0.0001302996039401731, Final residual = 4.845899883592217e-07, No Iterations 1
DILUPBiCGStab:  Solving for Uy, Initial residual = 0.0008483585026048427, Final residual = 2.022642929789651e-06, No Iterations 2
DILUPBiCGStab:  Solving for Uz, Initial residual = 2.886769790556953e-05, Final residual = 2.628782937089302e-07, No Iterations 1
DILUPBiCGStab:  Solving for h, Initial residual = 0.001100952331057851, Final residual = 9.260019380082894e-06, No Iterations 1
GAMG:  Solving for p, Initial residual = 0.01390907936182777, Final residual = 0.0001245938270464681, No Iterations 8
GAMG:  Solving for p, Initial residual = 0.001070629724910824, Final residual = 6.607341097574688e-06, No Iterations 8
GAMG:  Solving for p, Initial residual = 0.0002103145311482787, Final residual = 1.870735617174984e-06, No Iterations 7
time step continuity errors : sum local = 7.292347970367687e-06, global = 5.848096415290546e-08, cumulative = 3.831770369658424e-06
DILUPBiCGStab:  Solving for nuTilda, Initial residual = 0.0002810033243546534, Final residual = 2.363388684585278e-06, No Iterations 1
ExecutionTime = 286.46 s  ClockTime = 286 s

forceCoeffs forceCoeffs write:
    Coefficient	Total	Pressure	Viscous	Internal
    Cd:	0.03758411248384425	0.0350863010125998	0.00249781147124445	0
    Cd(f):	0.02192537578200097	0.02067791287334088	0.001247462908660089	0
    Cd(r):	0.01565873670184328	0.01440838813925892	0.001250348562584361	0
    Cl:	-0.001180476410196914	-0.001172984467399839	-7.491942797074475e-06	0
    Cl(f):	-0.0006178670662750208	-0.0005754944267983004	-4.237263947672034e-05	0
    Cl(r):	-0.0005626093439218927	-0.0005974900406015386	3.488069667964586e-05	0
    CmPitch:	-2.762886117656406e-05	1.099780690161904e-05	-3.86266680781831e-05	0
    CmRoll:	0.003133319540078845	0.003134762367040981	-1.44282696213614e-06	0
    CmYaw:	-0.005519505496022688	-0.006349266762913396	0.0008297612668907073	0
    Cs:	0.1986333312089101	0.1989075635687322	-0.0002742323598220898	0
    Cs(f):	0.09379716010843236	0.0931045150214527	0.0006926450869796624	0
    Cs(r):	0.1048361711004777	0.1058030485472795	-0.0009668774468017522	0

    writing force and moment coefficient files.

Time = 25

DILUPBiCGStab:  Solving for Ux, Initial residual = 0.0001154680672671354, Final residual = 3.814158371412664e-07, No Iterations 1
DILUPBiCGStab:  Solving for Uy, Initial residual = 0.0007571952277753503, Final residual = 7.366107749097233e-07, No Iterations 2
DILUPBiCGStab:  Solving for Uz, Initial residual = 2.515245947509846e-05, Final residual = 2.042862262954286e-07, No Iterations 1
DILUPBiCGStab:  Solving for h, Initial residual = 0.001568767556452012, Final residual = 1.417260785765434e-05, No Iterations 1
GAMG:  Solving for p, Initial residual = 0.01129757162980591, Final residual = 8.259103714645615e-05, No Iterations 9
GAMG:  Solving for p, Initial residual = 0.001107815201905172, Final residual = 6.552940623255503e-06, No Iterations 8
GAMG:  Solving for p, Initial residual = 0.0002331632290570394, Final residual = 1.94274905172071e-06, No Iterations 5
time step continuity errors : sum local = 6.450408143746799e-06, global = -4.101709912605755e-07, cumulative = 3.421599378397848e-06
DILUPBiCGStab:  Solving for nuTilda, Initial residual = 0.0002171262405134324, Final residual = 1.864861319300472e-06, No Iterations 1
ExecutionTime = 298.34 s  ClockTime = 298 s

forceCoeffs forceCoeffs write:
    Coefficient	Total	Pressure	Viscous	Internal
    Cd:	0.03198805486342772	0.02951348438872947	0.002474570474698254	0
    Cd(f):	0.01908877935575835	0.01785297670451818	0.00123580265124017	0
    Cd(r):	0.01289927550766937	0.01166050768421129	0.001238767823458084	0
    Cl:	-0.001157698080148524	-0.00114985903710065	-7.839043047874273e-06	0
    Cl(f):	-0.0005479226785725718	-0.0005055066665420956	-4.241601203047616e-05	0
    Cl(r):	-0.0006097754015759522	-0.0006443523705585541	3.457696898260189e-05	0
    CmPitch:	3.092636150169022e-05	6.942285200822924e-05	-3.849649050653902e-05	0
    CmRoll:	0.00309475192404449	0.003096234510153447	-1.482586108956848e-06	0
    CmYaw:	-0.005847664834879503	-0.006674800963540877	0.0008271361286613743	0
    Cs:	0.1967745185142225	0.1970598785206099	-0.0002853600063874366	0
    Cs(f):	0.09253959442223171	0.09185513829676406	0.0006844561254676561	0
    Cs(r):	0.1042349240919907	0.1052047402238458	-0.0009698161318550926	0

    writing force and moment coefficient files.

Time = 26

DILUPBiCGStab:  Solving for Ux, Initial residual = 8.556288175985307e-05, Final residual = 2.703309075469701e-07, No Iterations 1
DILUPBiCGStab:  Solving for Uy, Initial residual = 0.0007043037336695394, Final residual = 4.978136995915546e-06, No Iterations 1
DILUPBiCGStab:  Solving for Uz, Initial residual = 2.284311527923305e-05, Final residual = 1.763419661820565e-07, No Iterations 1
DILUPBiCGStab:  Solving for h, Initial residual = 0.002843823687873527, Final residual = 2.756810378093287e-05, No Iterations 1
GAMG:  Solving for p, Initial residual = 0.009998146658536801, Final residual = 5.379142584954232e-05, No Iterations 10
GAMG:  Solving for p, Initial residual = 0.001302346415851954, Final residual = 8.661662266022388e-06, No Iterations 7
GAMG:  Solving for p, Initial residual = 0.0002774307284078262, Final residual = 1.408856285504214e-06, No Iterations 7
time step continuity errors : sum local = 3.495785925978196e-06, global = -3.893429842628002e-08, cumulative = 3.382665079971568e-06
DILUPBiCGStab:  Solving for nuTilda, Initial residual = 0.0001777279534718053, Final residual = 1.574376997884529e-06, No Iterations 1
ExecutionTime = 310.71 s  ClockTime = 311 s

forceCoeffs forceCoeffs write:
    Coefficient	Total	Pressure	Viscous	Internal
    Cd:	0.02715546089707184	0.02470449856551496	0.002450962331556887	0
    Cd(f):	0.01665001048151912	0.01542601813392296	0.001223992347596159	0
    Cd(r):	0.01050545041555272	0.009278480431591993	0.001226969983960728	0
    Cl:	-0.001141789593167364	-0.001133492968835976	-8.296624331387438e-06	0
    Cl(f):	-0.0005242977835677131	-0.0004817619573242645	-4.253582624344854e-05	0
    Cl(r):	-0.0006174918095996505	-0.0006517310115117116	3.423920191206109e-05	0
    CmPitch:	4.659701301596871e-05	8.498452709372352e-05	-3.838751407775482e-05	0
    CmRoll:	0.003072280032983201	0.003073768851165485	-1.488818182284566e-06	0
    CmYaw:	-0.006177218939465717	-0.007001668559848935	0.0008244496203832172	0
    Cs:	0.1954767990786962	0.195773567838691	-0.0002967687599948563	0
    Cs(f):	0.09156118059988237	0.09088511535949659	0.0006760652403857891	0
    Cs(r):	0.1039156184788138	0.1048884524791945	-0.0009728340003806454	0

    writing force and moment coefficient files.

Time = 27

DILUPBiCGStab:  Solving for Ux, Initial residual = 6.259488376773937e-05, Final residual = 3.178311461793795e-07, No Iterations 1
DILUPBiCGStab:  Solving for Uy, Initial residual = 0.0006368744244776747, Final residual = 4.790405392244609e-06, No Iterations 1
DILUPBiCGStab:  Solving for Uz, Initial residual = 2.1233740216078e-05, Final residual = 1.73755782278207e-07, No Iterations 1
DILUPBiCGStab:  Solving for h, Initial residual = 0.01421897722545179, Final residual = 2.962130459061282e-05, No Iterations 2
GAMG:  Solving for p, Initial residual = 0.009673493099429688, Final residual = 7.267347897733056e-05, No Iterations 8
GAMG:  Solving for p, Initial residual = 0.001726149499907786, Final residual = 1.319418349353372e-05, No Iterations 7
GAMG:  Solving for p, Initial residual = 0.0003676552475544049, Final residual = 2.874137063444133e-06, No Iterations 5
time step continuity errors : sum local = 5.038061186967004e-06, global = 2.458825822607296e-07, cumulative = 3.628547662232298e-06
DILUPBiCGStab:  Solving for nuTilda, Initial residual = 0.000151710878079767, Final residual = 1.396061999412233e-06, No Iterations 1
ExecutionTime = 322.37 s  ClockTime = 322 s

forceCoeffs forceCoeffs write:
    Coefficient	Total	Pressure	Viscous	Internal
    Cd:	0.02452657881291629	0.02209859387490322	0.002427984938013078	0
    Cd(f):	0.01533046249339477	0.0141179838550106	0.001212478638384172	0
    Cd(r):	0.009196116319521525	0.007980610019892618	0.001215506299628906	0
    Cl:	-0.001119492014743426	-0.00111080270538014	-8.689309363285905e-06	0
    Cl(f):	-0.0005486476524082482	-0.0005060378610569187	-4.260979135132948e-05	0
    Cl(r):	-0.0005708443623351774	-0.000604764844323221	3.392048198804357e-05	0
    CmPitch:	1.10983549634646e-05	4.936349163315113e-05	-3.826513666968653e-05	0
    CmRoll:	0.003067173086936624	0.003068686917558991	-1.513830622366714e-06	0
    CmYaw:	-0.00639795523707851	-0.007219706695254013	0.0008217514581755037	0
    Cs:	0.1950650985694815	0.1953730624210641	-0.0003079638515825349	0
    Cs(f):	0.09113459404766225	0.09046682451527802	0.0006677695323842362	0
    Cs(r):	0.1039305045218193	0.104906237905786	-0.0009757333839667713	0

    writing force and moment coefficient files.

Time = 28

DILUPBiCGStab:  Solving for Ux, Initial residual = 7.408517626787659e-05, Final residual = 4.359196392828238e-07, No Iterations 1
DILUPBiCGStab:  Solving for Uy, Initial residual = 0.0005207237356627713, Final residual = 4.760121277322352e-06, No Iterations 1
DILUPBiCGStab:  Solving for Uz, Initial residual = 1.883125179082346e-05, Final residual = 1.6948763033009e-07, No Iterations 1
DILUPBiCGStab:  Solving for h, Initial residual = 0.004055328156744181, Final residual = 6.967118671660624e-06, No Iterations 2
GAMG:  Solving for p, Initial residual = 0.0096026008829118, Final residual = 4.542776648163726e-05, No Iterations 10
GAMG:  Solving for p, Initial residual = 0.001838131107641558, Final residual = 1.157170176071361e-05, No Iterations 7
GAMG:  Solving for p, Initial residual = 0.0004089990974386925, Final residual = 3.966565542716466e-06, No Iterations 4
time step continuity errors : sum local = 5.564533614068162e-06, global = -1.291905284006303e-08, cumulative = 3.615628609392235e-06
DILUPBiCGStab:  Solving for nuTilda, Initial residual = 0.000133500181982655, Final residual = 1.278974501185808e-06, No Iterations 1
ExecutionTime = 334.27 s  ClockTime = 335 s

forceCoeffs forceCoeffs write:
    Coefficient	Total	Pressure	Viscous	Internal
    Cd:	0.0244059396725125	0.02199954062501707	0.002406399047495426	0
    Cd(f):	0.01526087851334483	0.0140592786910807	0.001201599822264124	0
    Cd(r):	0.009145061159167675	0.007940261933936371	0.001204799225231303	0
    Cl:	-0.001045680203706088	-0.00103679992530562	-8.880278400468075e-06	0
    Cl(f):	-0.0005877751511096686	-0.0005452379176869103	-4.253723342275838e-05	0
    Cl(r):	-0.0004579050525964197	-0.00049156200761871	3.36569550222903e-05	0
    CmPitch:	-6.493504925662444e-05	-2.68379550341001e-05	-3.809709422252434e-05	0
    CmRoll:	0.003057908677088576	0.003059508378572165	-1.599701483589606e-06	0
    CmYaw:	-0.006468071062051617	-0.007287166692424724	0.0008190956303731069	0
    Cs:	0.1954712810294388	0.1957898102959188	-0.0003185292664800777	0
    Cs(f):	0.09126756945266776	0.09060773845553469	0.0006598309971330681	0
    Cs(r):	0.104203711576771	0.1051820718403841	-0.0009783602636131458	0

    writing force and moment coefficient files.

Time = 29

DILUPBiCGStab:  Solving for Ux, Initial residual = 9.334919235321904e-05, Final residual = 3.881609480318605e-07, No Iterations 1
DILUPBiCGStab:  Solving for Uy, Initial residual = 0.0004571126818153649, Final residual = 3.2807163136355e-06, No Iterations 2
DILUPBiCGStab:  Solving for Uz, Initial residual = 1.642555314498553e-05, Final residual = 1.604849712081615e-07, No Iterations 1
DILUPBiCGStab:  Solving for h, Initial residual = 0.001901822770992153, Final residual = 3.62189527465773e-06, No Iterations 2
GAMG:  Solving for p, Initial residual = 0.009598440007737425, Final residual = 7.485575917191023e-05, No Iterations 9
GAMG:  Solving for p, Initial residual = 0.001578677027565326, Final residual = 1.303993408160745e-05, No Iterations 7
GAMG:  Solving for p, Initial residual = 0.0003517065504421472, Final residual = 3.083162035469505e-06, No Iterations 7
time step continuity errors : sum local = 4.635831449435338e-06, global = -4.201625767626931e-07, cumulative = 3.195466032629542e-06
DILUPBiCGStab:  Solving for nuTilda, Initial residual = 0.0001201758330119809, Final residual = 1.197815767527489e-06, No Iterations 1
ExecutionTime = 346.58 s  ClockTime = 347 s

forceCoeffs forceCoeffs write:
    Coefficient	Total	Pressure	Viscous	Internal
    Cd:	0.02614711485755469	0.02376064611180676	0.002386468745747931	0
    Cd(f):	0.01610696868096286	0.01491548989714608	0.001191478783816777	0
    Cd(r):	0.01004014617659183	0.008845156214660678	0.001194989961931154	0
    Cl:	-0.0009062448932452467	-0.0008974099221945395	-8.834971050707156e-06	0
    Cl(f):	-0.00060893729361004	-0.0005666614812633599	-4.22758123466801e-05	0
    Cl(r):	-0.0002973075996352067	-0.0003307484409311797	3.344084129597294e-05	0
    CmPitch:	-0.0001558148469874166	-0.0001179565201660901	-3.785832682132652e-05	0
    CmRoll:	0.003033411252185514	0.003035166841242703	-1.755589057188398e-06	0
    CmYaw:	-0.006408251179188982	-0.007224747034426093	0.000816495855237111	0
    Cs:	0.196360339004121	0.1966885728855577	-0.0003282338814366726	0
    Cs(f):	0.09177191832287153	0.09111953940835275	0.0006523789145187747	0
    Cs(r):	0.1045884206812495	0.1055690334772049	-0.0009806127959554474	0

    writing force and moment coefficient files.

Time = 30

DILUPBiCGStab:  Solving for Ux, Initial residual = 8.903383038537911e-05, Final residual = 2.9792956791808e-07, No Iterations 1
DILUPBiCGStab:  Solving for Uy, Initial residual = 0.0004628520403618683, Final residual = 4.370041428959894e-06, No Iterations 1
DILUPBiCGStab:  Solving for Uz, Initial residual = 1.547783738061107e-05, Final residual = 1.513898540075908e-07, No Iterations 1
DILUPBiCGStab:  Solving for h, Initial residual = 0.001259235553375159, Final residual = 3.094191343329685e-06, No Iterations 2
GAMG:  Solving for p, Initial residual = 0.009365475975985884, Final residual = 8.806148336906935e-05, No Iterations 8
GAMG:  Solving for p, Initial residual = 0.001011524127022352, Final residual = 5.500770193088369e-06, No Iterations 8
GAMG:  Solving for p, Initial residual = 0.0002126255051076066, Final residual = 2.049206689881637e-06, No Iterations 5
time step continuity errors : sum local = 3.992460536090363e-06, global = 3.867890189304088e-08, cumulative = 3.234144934522583e-06
DILUPBiCGStab:  Solving for nuTilda, Initial residual = 0.0001101397853771433, Final residual = 1.175008734659523e-07, No Iterations 2
ExecutionTime = 358.52 s  ClockTime = 358 s

forceCoeffs forceCoeffs write:
    Coefficient	Total	Pressure	Viscous	Internal
    Cd:	0.02862679634639124	0.02625879818525442	0.002367998161136816	0
    Cd(f):	0.01730595089153124	0.01612392057602416	0.00118203031550708	0
    Cd(r):	0.01132084545486	0.01013487760923026	0.001185967845629736	0
    Cl:	-0.0007147282780246169	-0.0007061426990205166	-8.58557900410026e-06	0
    Cl(f):	-0.0005918145062258329	-0.0005499642870975239	-4.185021912830896e-05	0
    Cl(r):	-0.000122913771798784	-0.0001561784119229927	3.32646401242087e-05	0
    CmPitch:	-0.0002344503672135244	-0.0001968929375872656	-3.755742962625883e-05	0
    CmRoll:	0.002992552718335618	0.002994521483396947	-1.968765061328341e-06	0
    CmYaw:	-0.006280579564009162	-0.007094513463566399	0.0008139338995572372	0
    Cs:	0.1973131355755798	0.1976502226260269	-0.0003370870504471536	0
    Cs(f):	0.09237598822378071	0.09173059784944705	0.0006453903743336603	0
    Cs(r):	0.104937147351799	0.1059196247765799	-0.0009824774247808139	0

    writing force and moment coefficient files.

Time = 31

DILUPBiCGStab:  Solving for Ux, Initial residual = 6.926746723044124e-05, Final residual = 2.12269741528155e-07, No Iterations 1
DILUPBiCGStab:  Solving for Uy, Initial residual = 0.0004776747567949462, Final residual = 3.122343790339038e-06, No Iterations 1
DILUPBiCGStab:  Solving for Uz, Initial residual = 1.582963747709269e-05, Final residual = 1.44445119631717e-07, No Iterations 1
DILUPBiCGStab:  Solving for h, Initial residual = 0.0009902109696790929, Final residual = 3.25245723752724e-06, No Iterations 2
GAMG:  Solving for p, Initial residual = 0.009108066137664361, Final residual = 8.057446758272274e-05, No Iterations 8
GAMG:  Solving for p, Initial residual = 0.0008184034657427851, Final residual = 5.200497544714865e-06, No Iterations 7
GAMG:  Solving for p, Initial residual = 0.0001805629966209178, Final residual = 9.910396465353256e-07, No Iterations 7
time step continuity errors : sum local = 2.500512823762046e-06, global = 7.417984353374538e-08, cumulative = 3.308324778056328e-06
DILUPBiCGStab:  Solving for nuTilda, Initial residual = 0.0001021757470276535, Final residual = 1.159574507097669e-07, No Iterations 2
ExecutionTime = 370.62 s  ClockTime = 370 s

forceCoeffs forceCoeffs write:
    Coefficient	Total	Pressure	Viscous	Internal
    Cd:	0.03077086966784565	0.02842030305727258	0.002350566610573078	0
    Cd(f):	0.01833013347744903	0.01715706591788125	0.001173067559567788	0
    Cd(r):	0.01244073619039662	0.01126323713939133	0.00117749905100529	0
    Cl:	-0.0005189024750710924	-0.0005106950364736568	-8.207438597435637e-06	0
    Cl(f):	-0.0005520356456447758	-0.0005106983791884107	-4.133726645636508e-05	0
    Cl(r):	3.313317057368336e-05	3.342714753921342e-09	3.312982785892944e-05	0
    CmPitch:	-0.0002925844081092296	-0.0002553508609515823	-3.723354715764726e-05	0
    CmRoll:	0.002944698643526208	0.002946914389244958	-2.215745718750633e-06	0
    CmYaw:	-0.006152180944758742	-0.006963567188283343	0.0008113862435246016	0
    Cs:	0.197989576858534	0.1983348975380004	-0.0003453206794663822	0
    Cs(f):	0.09284260748450826	0.09220388158071685	0.0006387259037914106	0
    Cs(r):	0.1051469693740257	0.1061310159572835	-0.0009840465832577927	0

    writing force and moment coefficient files.

Time = 32

DILUPBiCGStab:  Solving for Ux, Initial residual = 4.659133007679692e-05, Final residual = 1.762438374818011e-07, No Iterations 1
DILUPBiCGStab:  Solving for Uy, Initial residual = 0.0004796112735413877, Final residual = 2.77671805398938e-06, No Iterations 1
DILUPBiCGStab:  Solving for Uz, Initial residual = 1.643766450089795e-05, Final residual = 1.442695834325084e-07, No Iterations 1
DILUPBiCGStab:  Solving for h, Initial residual = 0.000829713658446362, Final residual = 3.622006444575779e-06, No Iterations 2
GAMG:  Solving for p, Initial residual = 0.008708882400703602, Final residual = 5.272317378389206e-05, No Iterations 9
GAMG:  Solving for p, Initial residual = 0.0006978564088927781, Final residual = 6.344973919415376e-06, No Iterations 6
GAMG:  Solving for p, Initial residual = 0.0001500031177356653, Final residual = 1.197484802718435e-06, No Iterations 5
time step continuity errors : sum local = 3.573019099485105e-06, global = -2.754368861612322e-08, cumulative = 3.280781089440205e-06
DILUPBiCGStab:  Solving for nuTilda, Initial residual = 9.565665609700108e-05, Final residual = 1.123891814954043e-07, No Iterations 2
ExecutionTime = 382.38 s  ClockTime = 381 s

forceCoeffs forceCoeffs write:
    Coefficient	Total	Pressure	Viscous	Internal
    Cd:	0.03192021910734507	0.02958650106658424	0.002333718040760829	0
    Cd(f):	0.0188586472722851	0.01769425199266596	0.001164395279619138	0
    Cd(r):	0.01306157183505997	0.01189224907391828	0.001169322761141691	0
    Cl:	-0.0003494845797350981	-0.0003416785256386634	-7.806054096434754e-06	0
    Cl(f):	-0.0005081720947823832	-0.000467338612500064	-4.083348228231917e-05	0
    Cl(r):	0.000158687515047285	0.0001256600868614006	3.302742818588441e-05	0
    CmPitch:	-0.0003334298049148341	-0.0002964993496807323	-3.693045523410179e-05	0
    CmRoll:	0.002898537718612564	0.00290100145937384	-2.463740761276259e-06	0
    CmYaw:	-0.006071996623490051	-0.006880833126682495	0.000808836503192444	0
    Cs:	0.1982418160232378	0.1985950897293753	-0.0003532737061375253	0
    Cs(f):	0.09304891138812883	0.09241671173800516	0.0006321996501236814	0
    Cs(r):	0.105192904635109	0.1061783779913702	-0.0009854733562612067	0

    writing force and moment coefficient files.

Time = 33

DILUPBiCGStab:  Solving for Ux, Initial residual = 3.901033538265096e-05, Final residual = 3.150806956746086e-07, No Iterations 1
DILUPBiCGStab:  Solving for Uy, Initial residual = 0.0004735348032429183, Final residual = 2.88429631422418e-06, No Iterations 1
DILUPBiCGStab:  Solving for Uz, Initial residual = 1.671496149318233e-05, Final residual = 1.507693963185131e-07, No Iterations 1
DILUPBiCGStab:  Solving for h, Initial residual = 0.0007115895739024834, Final residual = 4.036662404309602e-06, No Iterations 2
GAMG:  Solving for p, Initial residual = 0.007495498332633151, Final residual = 4.544668626565282e-05, No Iterations 8
GAMG:  Solving for p, Initial residual = 0.0005781282159385051, Final residual = 3.664085670818948e-06, No Iterations 7
GAMG:  Solving for p, Initial residual = 0.000125765646586653, Final residual = 9.954626323316223e-07, No Iterations 5
time step continuity errors : sum local = 3.151329346505482e-06, global = 5.748472325344835e-08, cumulative = 3.338265812693653e-06
DILUPBiCGStab:  Solving for nuTilda, Initial residual = 9.014344627592243e-05, Final residual = 1.06369642963436e-07, No Iterations 2
ExecutionTime = 394.25 s  ClockTime = 394 s

forceCoeffs forceCoeffs write:
    Coefficient	Total	Pressure	Viscous	Internal
    Cd:	0.03193181319738611	0.02961470288740608	0.002317110309980029	0
    Cd(f):	0.01882525593054846	0.01766938568343775	0.00115587024711071	0
    Cd(r):	0.01310655726683765	0.01194531720396833	0.001161240062869319	0
    Cl:	-0.0002160952164062565	-0.0002086107879772739	-7.484428428982606e-06	0
    Cl(f):	-0.0004720393252791576	-0.0004316253527814451	-4.041397249771245e-05	0
    Cl(r):	0.000255944108872901	0.0002230145648041712	3.292954406872984e-05	0
    CmPitch:	-0.0003639917170760293	-0.0003273199587928081	-3.667175828322114e-05	0
    CmRoll:	0.002859349331855404	0.002862034239734708	-2.68490787930421e-06	0
    CmYaw:	-0.006059012072240051	-0.006865291868215928	0.000806279795975877	0
    Cs:	0.1981132164076567	0.1984744605534952	-0.0003612441458385051	0
    Cs(f):	0.09299759613158833	0.0923719384085317	0.0006256577230566245	0
    Cs(r):	0.1051156202760684	0.1061025221449635	-0.0009869018688951296	0

    writing force and moment coefficient files.

Time = 34

DILUPBiCGStab:  Solving for Ux, Initial residual = 5.781737263690916e-05, Final residual = 3.834912476250956e-07, No Iterations 1
DILUPBiCGStab:  Solving for Uy, Initial residual = 0.0004951116685795293, Final residual = 3.724014348600586e-06, No Iterations 1
DILUPBiCGStab:  Solving for Uz, Initial residual = 1.649043801079448e-05, Final residual = 1.567290258590367e-07, No Iterations 1
DILUPBiCGStab:  Solving for h, Initial residual = 0.0006148225534679595, Final residual = 4.448484209624128e-06, No Iterations 2
GAMG:  Solving for p, Initial residual = 0.006088590762425409, Final residual = 3.853113697907403e-05, No Iterations 10
GAMG:  Solving for p, Initial residual = 0.0004858611367100073, Final residual = 3.521302409108196e-06, No Iterations 7
GAMG:  Solving for p, Initial residual = 0.0001090438145621733, Final residual = 3.640256769055186e-07, No Iterations 8
[...]
DILUPBiCGStab:  Solving for h, Initial residual = 4.016387676807229e-08, Final residual = 3.654663404787719e-09, No Iterations 1
GAMG:  Solving for p, Initial residual = 1.043443189588275e-06, Final residual = 8.782699471336638e-08, No Iterations 3
GAMG:  Solving for p, Initial residual = 1.400794415234569e-07, Final residual = 3.864902273281534e-08, No Iterations 1
GAMG:  Solving for p, Initial residual = 4.725711507813039e-08, Final residual = 4.725711507813039e-08, No Iterations 0
time step continuity errors : sum local = 8.956187794220739e-08, global = 4.163479828166573e-10, cumulative = 3.396010922363216e-06
DILUPBiCGStab:  Solving for nuTilda, Initial residual = 7.456964084038106e-08, Final residual = 5.178274062634654e-09, No Iterations 1
ExecutionTime = 9813.469999999999 s  ClockTime = 9814 s

forceCoeffs forceCoeffs write:
    Coefficient	Total	Pressure	Viscous	Internal
    Cd:	0.02969984072968786	0.02784508304328021	0.001854757686407657	0
    Cd(f):	0.01769473975654102	0.01677569515000419	0.0009190446065368353	0
    Cd(r):	0.01200510097314684	0.01106938789327602	0.0009357130798708213	0
    Cl:	-0.0001485799604386818	-0.0001435037279711843	-5.076232467497451e-06	0
    Cl(f):	-0.0004395417133632196	-0.0004077561424745055	-3.178557088871406e-05	0
    Cl(r):	0.0002909617529245378	0.0002642524145033212	2.670933842121661e-05	0
    CmPitch:	-0.0003652517331438787	-0.0003360042784889133	-2.924745465496533e-05	0
    CmRoll:	0.002844819391697089	0.002853153628364082	-8.334236666993008e-06	0
    CmYaw:	-0.007299883938149451	-0.00792906115000247	0.0006291772118530189	0
    Cs:	0.198365105545281	0.1990561611092819	-0.0006910555640008408	0
    Cs(f):	0.09188266883449106	0.09159901940463847	0.0002836494298525985	0
    Cs(r):	0.10648243671079	0.1074571417046434	-0.0009747049938534393	0

    writing force and moment coefficient files.

Time = 1008

DILUPBiCGStab:  Solving for Ux, Initial residual = 1.679303929905396e-08, Final residual = 1.023831472905389e-09, No Iterations 1
DILUPBiCGStab:  Solving for Uy, Initial residual = 2.206897149372959e-07, Final residual = 9.981591719182001e-09, No Iterations 1
DILUPBiCGStab:  Solving for Uz, Initial residual = 6.951451439531361e-09, Final residual = 6.951451439531361e-09, No Iterations 0
DILUPBiCGStab:  Solving for h, Initial residual = 3.98937367125758e-08, Final residual = 3.63130506994078e-09, No Iterations 1
GAMG:  Solving for p, Initial residual = 1.041297980298948e-06, Final residual = 8.744331794017573e-08, No Iterations 3
GAMG:  Solving for p, Initial residual = 1.394733313751966e-07, Final residual = 3.853750217385426e-08, No Iterations 1
GAMG:  Solving for p, Initial residual = 4.711992002994203e-08, Final residual = 4.711992002994203e-08, No Iterations 0
time step continuity errors : sum local = 8.930178860865111e-08, global = 3.422196964619104e-10, cumulative = 3.396353142059678e-06
DILUPBiCGStab:  Solving for nuTilda, Initial residual = 7.490376940722396e-08, Final residual = 5.172382367793603e-09, No Iterations 1
ExecutionTime = 9821.35 s  ClockTime = 9821 s

forceCoeffs forceCoeffs write:
    Coefficient	Total	Pressure	Viscous	Internal
    Cd:	0.02969984066864694	0.02784508327223843	0.00185475739640851	0
    Cd(f):	0.0176947397701404	0.01677569531846089	0.0009190444516795126	0
    Cd(r):	0.01200510089850654	0.01106938795377754	0.0009357129447289972	0
    Cl:	-0.0001485803242959956	-0.0001435041217431989	-5.076202552796697e-06	0
    Cl(f):	-0.000439541594825233	-0.0004077560615448928	-3.178553328034012e-05	0
    Cl(r):	0.0002909612705292374	0.0002642519398016939	2.670933072754342e-05	0
    CmPitch:	-0.0003652514326772352	-0.0003360040006732934	-2.924743200394177e-05	0
    CmRoll:	0.002844819435816933	0.002853153682341675	-8.334246524742296e-06	0
    CmYaw:	-0.007299883964532719	-0.007929061613522857	0.0006291776489901385	0
    Cs:	0.1983651076388987	0.1990561632917686	-0.0006910556528698701	0
    Cs(f):	0.09188266985491662	0.09159902003236142	0.0002836498225552034	0
    Cs(r):	0.1064824377839821	0.1074571432594071	-0.0009747054754250736	0

    writing force and moment coefficient files.

Time = 1009

DILUPBiCGStab:  Solving for Ux, Initial residual = 1.669671875404478e-08, Final residual = 1.015908812659365e-09, No Iterations 1
DILUPBiCGStab:  Solving for Uy, Initial residual = 2.196342277303049e-07, Final residual = 9.993187063429211e-09, No Iterations 1
DILUPBiCGStab:  Solving for Uz, Initial residual = 6.897223410173281e-09, Final residual = 6.897223410173281e-09, No Iterations 0
DILUPBiCGStab:  Solving for h, Initial residual = 3.962693036340653e-08, Final residual = 3.608125804143825e-09, No Iterations 1
GAMG:  Solving for p, Initial residual = 1.035318577841959e-06, Final residual = 8.698536221830801e-08, No Iterations 3
GAMG:  Solving for p, Initial residual = 1.387813867097035e-07, Final residual = 3.834777405543596e-08, No Iterations 1
GAMG:  Solving for p, Initial residual = 4.690855278286746e-08, Final residual = 4.690855278286746e-08, No Iterations 0
time step continuity errors : sum local = 8.890114186513829e-08, global = 3.658506762341902e-10, cumulative = 3.396718992735913e-06
DILUPBiCGStab:  Solving for nuTilda, Initial residual = 7.403119612859135e-08, Final residual = 5.143530933263913e-09, No Iterations 1
ExecutionTime = 9829.16 s  ClockTime = 9829 s

forceCoeffs forceCoeffs write:
    Coefficient	Total	Pressure	Viscous	Internal
    Cd:	0.02969984055397774	0.02784508361593689	0.001854756938040856	0
    Cd(f):	0.01769473990156964	0.01677569566710559	0.0009190442344640432	0
    Cd(r):	0.01200510065240811	0.01106938794883129	0.0009357127035768129	0
    Cl:	-0.0001485808180592568	-0.0001435045979490527	-5.076220110204181e-06	0
    Cl(f):	-0.0004395415855500637	-0.0004077560316165038	-3.17855539335599e-05	0
    Cl(r):	0.0002909607674908068	0.0002642514336674511	2.670933382335573e-05	0
    CmPitch:	-0.0003652511765204352	-0.0003360037326419774	-2.924744387845782e-05	0
    CmRoll:	0.002844819624580766	0.002853153859137151	-8.334234556384872e-06	0
    CmYaw:	-0.007299884856824826	-0.007929062121924357	0.0006291772650995309	0
    Cs:	0.1983651097125191	0.199056165113058	-0.0006910554005388856	0
    Cs(f):	0.0918826699994347	0.09159902043460462	0.0002836495648300882	0
    Cs(r):	0.1064824397130844	0.1074571446784533	-0.0009747049653689737	0

    writing force and moment coefficient files.

Time = 1010

DILUPBiCGStab:  Solving for Ux, Initial residual = 1.659713700694393e-08, Final residual = 1.007518988988948e-09, No Iterations 1
DILUPBiCGStab:  Solving for Uy, Initial residual = 2.185368555901682e-07, Final residual = 9.996647702921452e-09, No Iterations 1
DILUPBiCGStab:  Solving for Uz, Initial residual = 6.844419346786251e-09, Final residual = 6.844419346786251e-09, No Iterations 0
DILUPBiCGStab:  Solving for h, Initial residual = 3.936211622587748e-08, Final residual = 3.584975580480037e-09, No Iterations 1
GAMG:  Solving for p, Initial residual = 1.027740532209922e-06, Final residual = 8.635887759475382e-08, No Iterations 3
GAMG:  Solving for p, Initial residual = 1.378536918617557e-07, Final residual = 3.811843034114088e-08, No Iterations 1
GAMG:  Solving for p, Initial residual = 4.664447286567894e-08, Final residual = 4.664447286567894e-08, No Iterations 0
time step continuity errors : sum local = 8.84005715622695e-08, global = 3.126622112888443e-10, cumulative = 3.397031654947201e-06
DILUPBiCGStab:  Solving for nuTilda, Initial residual = 7.374343505222719e-08, Final residual = 5.110190652230485e-09, No Iterations 1
ExecutionTime = 9836.889999999999 s  ClockTime = 9838 s

forceCoeffs forceCoeffs write:
    Coefficient	Total	Pressure	Viscous	Internal
    Cd:	0.02969984019620226	0.02784508400817114	0.001854756188031121	0
    Cd(f):	0.01769473973092304	0.01677569588223876	0.0009190438486842756	0
    Cd(r):	0.01200510046527923	0.01106938812593238	0.0009357123393468459	0
    Cl:	-0.0001485809668526046	-0.0001435047674043705	-5.076199448234168e-06	0
    Cl(f):	-0.00043954137146308	-0.0004077558485062676	-3.178552295681238e-05	0
    Cl(r):	0.0002909604046104753	0.0002642510811018971	2.670932350857822e-05	0
    CmPitch:	-0.0003652508880367776	-0.0003360034648040824	-2.92474232326953e-05	0
    CmRoll:	0.002844819632821905	0.00285315387815319	-8.334245331285118e-06	0
    CmYaw:	-0.007299884856628398	-0.007929062574987709	0.0006291777183593112	0
    Cs:	0.1983651118556582	0.1990561673679138	-0.0006910555122555105	0
    Cs(f):	0.09188267107120072	0.09159902110896917	0.000283649962231556	0
    Cs(r):	0.1064824407844575	0.1074571462589446	-0.0009747054744870665	0

    writing force and moment coefficient files.

Time = 1011

DILUPBiCGStab:  Solving for Ux, Initial residual = 1.650171770302098e-08, Final residual = 9.996507847184693e-10, No Iterations 1
DILUPBiCGStab:  Solving for Uy, Initial residual = 2.171964727704148e-07, Final residual = 9.967671917117725e-09, No Iterations 1
DILUPBiCGStab:  Solving for Uz, Initial residual = 6.792668475451426e-09, Final residual = 6.792668475451426e-09, No Iterations 0
DILUPBiCGStab:  Solving for h, Initial residual = 3.91006546396994e-08, Final residual = 3.562065891697856e-09, No Iterations 1
GAMG:  Solving for p, Initial residual = 1.020728773157725e-06, Final residual = 8.5911390070231e-08, No Iterations 3
GAMG:  Solving for p, Initial residual = 1.370626647293569e-07, Final residual = 3.790225993215192e-08, No Iterations 1
GAMG:  Solving for p, Initial residual = 4.635519223365153e-08, Final residual = 4.635519223365153e-08, No Iterations 0
time step continuity errors : sum local = 8.785223352999576e-08, global = 4.058863383131939e-10, cumulative = 3.397437541285514e-06
DILUPBiCGStab:  Solving for nuTilda, Initial residual = 7.32301893247008e-08, Final residual = 5.107750241672055e-09, No Iterations 1
ExecutionTime = 9844.459999999999 s  ClockTime = 9845 s

forceCoeffs forceCoeffs write:
    Coefficient	Total	Pressure	Viscous	Internal
    Cd:	0.02969983936522859	0.02784508460796997	0.001854754757258618	0
    Cd(f):	0.0176947394601381	0.0167756963139228	0.0009190431462152975	0
    Cd(r):	0.01200509990509049	0.01106938829404717	0.0009357116110433206	0
    Cl:	-0.0001485812597700765	-0.0001435050290736562	-5.076230696420326e-06	0
    Cl(f):	-0.0004395412170504464	-0.000407755688555588	-3.178552849485845e-05	0
    Cl(r):	0.0002909599572803699	0.0002642506594819318	2.670929779843812e-05	0
    CmPitch:	-0.0003652505871654082	-0.0003360031740187599	-2.924741314664828e-05	0
    CmRoll:	0.002844819777523802	0.002853154009937814	-8.334232414011588e-06	0
    CmYaw:	-0.007299885743750452	-0.007929063068782397	0.000629177325031945	0
    Cs:	0.1983651140957545	0.1990561693469802	-0.00069105525122572	0
    Cs(f):	0.09188267130412681	0.09159902160470772	0.000283649699419085	0
    Cs(r):	0.1064824427916277	0.1074571477422725	-0.000974704950644805	0

    writing force and moment coefficient files.

Time = 1012

DILUPBiCGStab:  Solving for Ux, Initial residual = 1.640998008705674e-08, Final residual = 9.920988578760016e-10, No Iterations 1
DILUPBiCGStab:  Solving for Uy, Initial residual = 2.156614230719097e-07, Final residual = 9.899791394699202e-09, No Iterations 1
DILUPBiCGStab:  Solving for Uz, Initial residual = 6.743215046982294e-09, Final residual = 6.743215046982294e-09, No Iterations 0
DILUPBiCGStab:  Solving for h, Initial residual = 3.884234648507165e-08, Final residual = 3.539371575339549e-09, No Iterations 1
GAMG:  Solving for p, Initial residual = 1.015735380792725e-06, Final residual = 8.538919854604655e-08, No Iterations 3
GAMG:  Solving for p, Initial residual = 1.36477813582577e-07, Final residual = 3.781864456005459e-08, No Iterations 1
GAMG:  Solving for p, Initial residual = 4.630127374096504e-08, Final residual = 4.630127374096504e-08, No Iterations 0
time step continuity errors : sum local = 8.77499798154031e-08, global = 2.082434302669994e-10, cumulative = 3.397645784715781e-06
DILUPBiCGStab:  Solving for nuTilda, Initial residual = 7.353871189405203e-08, Final residual = 5.101104361690468e-09, No Iterations 1
ExecutionTime = 9852.07 s  ClockTime = 9852 s

forceCoeffs forceCoeffs write:
    Coefficient	Total	Pressure	Viscous	Internal
    Cd:	0.02969983970335111	0.02784508523411557	0.001854754469235533	0
    Cd(f):	0.01769473958984931	0.01677569659766327	0.0009190429921860403	0
    Cd(r):	0.01200510011350179	0.0110693886364523	0.0009357114770494925	0
    Cl:	-0.0001485811841396378	-0.0001435049846910887	-5.076199448549127e-06	0
    Cl(f):	-0.0004395408613968065	-0.0004077553728669961	-3.178548852981033e-05	0
    Cl(r):	0.0002909596772571686	0.0002642503881759074	2.670928908126121e-05	0
    CmPitch:	-0.0003652502693269875	-0.0003360028805214518	-2.924738880553577e-05	0
    CmRoll:	0.002844819738173758	0.002853153980605485	-8.334242431726082e-06	0
    CmYaw:	-0.007299885734688331	-0.007929063504471829	0.000629177769783498	0
    Cs:	0.1983651164146996	0.1990561717681714	-0.0006910553534718583	0
    Cs(f):	0.09188267247266146	0.0915990223796139	0.0002836500930475688	0
    Cs(r):	0.1064824439420381	0.1074571493885575	-0.0009747054465194271	0

    writing force and moment coefficient files.

Time = 1013

DILUPBiCGStab:  Solving for Ux, Initial residual = 1.631731938343175e-08, Final residual = 9.845598249503004e-10, No Iterations 1
DILUPBiCGStab:  Solving for Uy, Initial residual = 2.138568244025369e-07, Final residual = 9.798491824618959e-09, No Iterations 1
DILUPBiCGStab:  Solving for Uz, Initial residual = 6.694718016274582e-09, Final residual = 6.694718016274582e-09, No Iterations 0
DILUPBiCGStab:  Solving for h, Initial residual = 3.858738487841722e-08, Final residual = 3.516906229576961e-09, No Iterations 1
GAMG:  Solving for p, Initial residual = 1.00953445680682e-06, Final residual = 8.517458844079227e-08, No Iterations 3
GAMG:  Solving for p, Initial residual = 1.358554020829582e-07, Final residual = 3.762779908661663e-08, No Iterations 1
GAMG:  Solving for p, Initial residual = 4.602056010426886e-08, Final residual = 4.602056010426886e-08, No Iterations 0
time step continuity errors : sum local = 8.721790435612141e-08, global = 4.137297177413109e-10, cumulative = 3.398059514433522e-06
DILUPBiCGStab:  Solving for nuTilda, Initial residual = 7.267972986804362e-08, Final residual = 5.073630106450337e-09, No Iterations 1
ExecutionTime = 9859.559999999999 s  ClockTime = 9859 s

forceCoeffs forceCoeffs write:
    Coefficient	Total	Pressure	Viscous	Internal
    Cd:	0.02969984003651956	0.02784508597167368	0.001854754064845875	0
    Cd(f):	0.01769473986832178	0.0167756970666159	0.0009190428017058806	0
    Cd(r):	0.01200510016819778	0.01106938890505778	0.0009357112631399947	0
    Cl:	-0.0001485812818318944	-0.0001435050655331489	-5.076216298745522e-06	0
    Cl(f):	-0.0004395406384917075	-0.0004077551290694149	-3.178550942229263e-05	0
    Cl(r):	0.000290959356659813	0.0002642500635362659	2.670929312354711e-05	0
    CmPitch:	-0.0003652499975757603	-0.0003360025963028404	-2.924740127291987e-05	0
    CmRoll:	0.002844819850062004	0.002853154080779061	-8.334230717057062e-06	0
    CmYaw:	-0.007299886598153204	-0.007929063982273377	0.0006291773841201731	0
    Cs:	0.1983651187668921	0.1990561738699611	-0.000691055103069077	0
    Cs(f):	0.09188267278529283	0.09159902295270719	0.0002836498325856346	0
    Cs(r):	0.1064824459815992	0.1074571509172539	-0.0009747049356547117	0

    writing force and moment coefficient files.

Time = 1014

DILUPBiCGStab:  Solving for Ux, Initial residual = 1.622104101027635e-08, Final residual = 9.764454809181752e-10, No Iterations 1
DILUPBiCGStab:  Solving for Uy, Initial residual = 2.120038958911213e-07, Final residual = 9.6831335350847e-09, No Iterations 1
DILUPBiCGStab:  Solving for Uz, Initial residual = 6.647720266106857e-09, Final residual = 6.647720266106857e-09, No Iterations 0
DILUPBiCGStab:  Solving for h, Initial residual = 3.83346617459083e-08, Final residual = 3.494547568883703e-09, No Iterations 1
GAMG:  Solving for p, Initial residual = 1.003867892898898e-06, Final residual = 8.482697303760738e-08, No Iterations 3
GAMG:  Solving for p, Initial residual = 1.352602388231618e-07, Final residual = 3.746187554166009e-08, No Iterations 1
GAMG:  Solving for p, Initial residual = 4.58414589729882e-08, Final residual = 4.58414589729882e-08, No Iterations 0
time step continuity errors : sum local = 8.68784150558332e-08, global = 4.03783765734381e-10, cumulative = 3.398463298199257e-06
DILUPBiCGStab:  Solving for nuTilda, Initial residual = 7.237649821525749e-08, Final residual = 5.040663943288775e-09, No Iterations 1
ExecutionTime = 9867.17 s  ClockTime = 9868 s

forceCoeffs forceCoeffs write:
    Coefficient	Total	Pressure	Viscous	Internal
    Cd:	0.02969983987560866	0.02784508661561269	0.001854753259995976	0
    Cd(f):	0.017694739756615	0.01677569736794765	0.0009190423886673558	0
    Cd(r):	0.01200510011899366	0.01106938924766504	0.0009357108713286201	0
    Cl:	-0.0001485812314130157	-0.0001435050344391778	-5.076196973837925e-06	0
    Cl(f):	-0.0004395403066432317	-0.000407754827370296	-3.178547927293568e-05	0
    Cl(r):	0.000290959075230216	0.0002642497929311182	2.670928229909776e-05	0
    CmPitch:	-0.0003652496909367238	-0.0003360023101507071	-2.924738078601672e-05	0
    CmRoll:	0.002844819818810672	0.002853154060141304	-8.334241330632146e-06	0
    CmYaw:	-0.007299886586697025	-0.007929064405565936	0.000629177818868911	0
    Cs:	0.1983651211475119	0.1990561763411657	-0.0006910551936537492	0
    Cs(f):	0.09188267398705893	0.0915990237650169	0.0002836502220420364	0
    Cs(r):	0.106482447160453	0.1074571525761488	-0.0009747054156957856	0

    writing force and moment coefficient files.

Time = 1015

DILUPBiCGStab:  Solving for Ux, Initial residual = 1.612861621460703e-08, Final residual = 9.68797185462616e-10, No Iterations 1
DILUPBiCGStab:  Solving for Uy, Initial residual = 2.101673223207001e-07, Final residual = 9.573086322086968e-09, No Iterations 1
DILUPBiCGStab:  Solving for Uz, Initial residual = 6.600715035993932e-09, Final residual = 6.600715035993932e-09, No Iterations 0
DILUPBiCGStab:  Solving for h, Initial residual = 3.808530449365615e-08, Final residual = 3.472454647717198e-09, No Iterations 1
GAMG:  Solving for p, Initial residual = 9.98400535893002e-07, Final residual = 8.455995773940921e-08, No Iterations 3
GAMG:  Solving for p, Initial residual = 1.345426790525822e-07, Final residual = 3.728322900715305e-08, No Iterations 1
GAMG:  Solving for p, Initial residual = 4.5549577284726e-08, Final residual = 4.5549577284726e-08, No Iterations 0
time step continuity errors : sum local = 8.632515242578678e-08, global = 5.043655449351569e-10, cumulative = 3.398967663744192e-06
DILUPBiCGStab:  Solving for nuTilda, Initial residual = 7.18879931583834e-08, Final residual = 5.038939266369071e-09, No Iterations 1
ExecutionTime = 9874.690000000001 s  ClockTime = 9876 s


SIMPLE solution converged in 1015 iterations

forceCoeffs forceCoeffs write:
    Coefficient	Total	Pressure	Viscous	Internal
    Cd:	0.02969983915099077	0.02784508726854445	0.001854751882446323	0
    Cd(f):	0.01769473954041852	0.01677569782762233	0.000919041712796192	0
    Cd(r):	0.01200509961057225	0.01106938944092212	0.0009357101696501315	0
    Cl:	-0.0001485815413473281	-0.0001435053121975008	-5.076229149827262e-06	0
    Cl(f):	-0.0004395401336797976	-0.000407754647953433	-3.178548572636466e-05	0
    Cl(r):	0.0002909585923324695	0.0002642493357559321	2.67092565765374e-05	0
    CmPitch:	-0.0003652493630061336	-0.0003360019918546825	-2.924737115145103e-05	0
    CmRoll:	0.002844819964923133	0.002853154193350103	-8.334228426969706e-06	0
    CmYaw:	-0.007299887437837961	-0.007929064874438681	0.0006291774366007197	0
    Cs:	0.1983651234593119	0.1990561784099193	-0.0006910549506073853	0
    Cs(f):	0.09188267429181797	0.09159902433052095	0.0002836499612970271	0
    Cs(r):	0.1064824491674939	0.1074571540793983	-0.0009747049119044124	0

    writing force and moment coefficient files.

End

Finalising parallel run
