/*---------------------------------------------------------------------------*\
| =========                 |                                                 |
| \\      /  F ield         | OpenFOAM: The Open Source CFD Toolbox           |
|  \\    /   O peration     | Version:  2412                                  |
|   \\  /    A nd           | Website:  www.openfoam.com                      |
|    \\/     M anipulation  |                                                 |
\*---------------------------------------------------------------------------*/
Build  : _e5c6ccc3-20250814 OPENFOAM=2412 patch=250814 version=2412
Arch   : "LSB;label=32;scalar=64"
Exec   : surfaceFeatureExtract
Date   : Jan 31 2026
Time   : 16:54:25
Host   : Albert
PID    : 1300001
--> FOAM Warning : 
    From Foam::fileName Foam::cwd_L()
    in file POSIX.C at line 552
    PWD is not the cwd() - reverting to physical description
I/O    : uncollated
--> FOAM Warning : 
    From Foam::fileName Foam::cwd_L()
    in file POSIX.C at line 552
    PWD is not the cwd() - reverting to physical description
Case   : /home/shafa/controlSurfaces/Blunt_Fin
nProcs : 1
trapFpe: Floating point exception trapping enabled (FOAM_SIGFPE).
fileModificationChecking : Monitoring run-time modified files using timeStampMaster (fileModificationSkew 5, maxFileModificationPolls 20)
allowSystemOperations : Allowing user-supplied system call operations

// * * * * * * * * * * * * * * * * * * * * * * * * * * * * * * * * * * * * * //
Create time

--> FOAM Warning : 
    From virtual void Foam::Time::readDict()
    in file db/Time/TimeIO.C at line 403
    Reading "system/controlDict" at line 17 to 112
    Disabled output compression for non-ascii format (inefficient/ineffective)

Note: Feature line extraction only valid on closed manifold surfaces

Reading surfaceFeatureExtractDict

Surfaces     : Fin.stl
Output       : Fin
Load options : offset
Write options: writeObj=yes writeVTK=off

Statistics:
Triangles    : 12 in 1 region(s)
Vertices     : 8
Bounding Box : (-0.03946429863572121 -0.003047999925911427 -1.409980018909155e-18) (0.1002359986305237 0.0001270000066142529 0.06984999775886536)

Constructing feature set from included angle 120
Selecting edges based purely on geometric tests: no
Removing all non-manifold edges (edges with > 2 connected faces) unless they cross multiple regions

Initial Feature set:
    points : 6
    edges  : 11
    of which
        region edges   : 0
        external edges : 11
        internal edges : 0

Final Feature set:
    points : 8
    of which
        convex             : 6
        concave            : 0
        mixed              : 0
        non-feature        : 2
    edges  : 11
    of which
        external edges     : 11
        internal edges     : 0
        flat edges         : 0
        open edges         : 0
        multiply connected : 0

Writing extendedFeatureEdgeMesh to "/home/shafa/controlSurfaces/Blunt_Fin/constant/extendedFeatureEdgeMesh/Fin.extendedFeatureEdgeMesh"

Writing extendedEdgeMesh components to "/home/shafa/controlSurfaces/Blunt_Fin/constant/extendedFeatureEdgeMesh/Fin"
Writing 6 convex feature points to "/home/shafa/controlSurfaces/Blunt_Fin/constant/extendedFeatureEdgeMesh/Fin_convexFeaturePts.obj"
Writing 0 concave feature points to "/home/shafa/controlSurfaces/Blunt_Fin/constant/extendedFeatureEdgeMesh/Fin_concaveFeaturePts.obj"
Writing 0 mixed feature points to "/home/shafa/controlSurfaces/Blunt_Fin/constant/extendedFeatureEdgeMesh/Fin_mixedFeaturePts.obj"
Writing 0 mixed feature point structure to "/home/shafa/controlSurfaces/Blunt_Fin/constant/extendedFeatureEdgeMesh/Fin_mixedFeaturePtsStructure.obj"
Writing 11 external edges to "/home/shafa/controlSurfaces/Blunt_Fin/constant/extendedFeatureEdgeMesh/Fin_externalEdges.obj"
Writing 0 internal edges to "/home/shafa/controlSurfaces/Blunt_Fin/constant/extendedFeatureEdgeMesh/Fin_internalEdges.obj"
Writing 0 flat edges to "/home/shafa/controlSurfaces/Blunt_Fin/constant/extendedFeatureEdgeMesh/Fin_flatEdges.obj"
Writing 0 open edges to "/home/shafa/controlSurfaces/Blunt_Fin/constant/extendedFeatureEdgeMesh/Fin_openEdges.obj"
Writing 0 multiple edges to "/home/shafa/controlSurfaces/Blunt_Fin/constant/extendedFeatureEdgeMesh/Fin_multipleEdges.obj"
Writing 0 region edges to "/home/shafa/controlSurfaces/Blunt_Fin/constant/extendedFeatureEdgeMesh/Fin_regionEdges.obj"
Writing 11 edge directions to "/home/shafa/controlSurfaces/Blunt_Fin/constant/extendedFeatureEdgeMesh/Fin_edgeDirections.obj"

Writing featureEdgeMesh to "/home/shafa/controlSurfaces/Blunt_Fin/constant/triSurface/Fin.eMesh"
ExecutionTime = 0 s  ClockTime = 0 s

End

